(dp1
S''
V
sS'failure analysis'
p2
Vfailure analysis
p3
sS'laser spectroscopy'
p4
Vultrafast laser spectroscopy
p5
sS'sla management'
p6
Vservice-level agreement
p7
sS'time studies'
p8
Vtime and motion study
p9
sS'computational biophysics'
p10
Vcomputational biology
p11
sS'dynamic'
p12
Vdynamics
p13
sS'project design'
p14
Vproduct design
p15
sS'electrophysiology'
p16
Velectrophysiology
p17
sS'ejb'
p18
Venterprise javabeans
p19
sS'system design'
p20
Vsystems design
p21
sS'puredb2xml'
p22
V
sS'cobit'
p23
Vcobit
p24
sS'content management'
p25
Vcontent management
p26
sS'brainstorm facilitation'
p27
Vsix thinking hats
p28
sS'hedge funds'
p29
Vhedge fund
p30
sS'messaging systems'
p31
Venterprise messaging system
p32
sS'matlab'
p33
Vmatlab
p34
sS'motion graphic'
p35
Vmotion graphics
p36
sS'teaching'
p37
Vteacher
p38
sS'positive attitude'
p39
Vpositive attitude
p40
sS'python (basics)'
p41
Vprogrammers
p42
sS'dutch'
p43
Vdutch
p44
sS'etl tools'
p45
Vcategory:etl tools
p46
sS'sellers'
p47
Vpeter sellers
p48
sS'replication'
p49
Vreplication
p50
sS'wimax'
p51
Vwimax
p52
sS'embedded c'
p53
Vembedded c
p54
sS'itil certified'
p55
Vinformation technology infrastructure library
p56
sS'voip'
p57
Vvoice over ip
p58
sS'branding & identity'
p59
Vbrand
p60
sS'cross-functional team leadership'
p61
Vcross-functional team
p62
sVbusiness innovation skills
p63
S'Department_for_Business,_Innovation_and_Skills'
p64
sS'risk assessment'
p65
Vrisk assessment
p66
sS'team spirit'
p67
Vteam spirit
p68
sS'ovation'
p69
Vovation guitar company
p70
sS'iron ore'
p71
Viron ore
p72
sVrabbitmq
p73
S'RabbitMQ'
p74
sS'engineering management'
p75
Vengineering management
p76
sS'policy administration'
p77
Vpublic administration
p78
sS'multi-cultural team leadership'
p79
Vmulticultural and diversity management
p80
sS'cms'
p81
Vcontent management system
p82
sS'ls-dyna'
p83
Vls-dyna
p84
sS'data journalism'
p85
Vdata journalism
p86
sS'numerical analysis'
p87
Vnumerical analysis
p88
sVpragmatic
p89
S'Pragmatism'
p90
sS'netbeans'
p91
Vnetbeans
p92
sS'time arrangement'
p93
Varrangement
p94
sS'actuarial science'
p95
Vactuarial science
p96
sS'asp.net ajax'
p97
Vasp.net ajax
p98
sS'wire framing'
p99
Vwebsite wireframe
p100
sS'process improvement'
p101
Vbusiness process improvement
p102
sS'virtualization'
p103
Vvirtualization
p104
sS'cost analysis'
p105
Vcost%e2%80%93benefit analysis
p106
sS'panda'
p107
Vgiant panda
p108
sS'p&l 5b'
p109
Vincome statement
p110
sS'idms'
p111
Vidms
p112
sS'cooking'
p113
Vcooking
p114
sS'youth leadership'
p115
Vyouth leadership
p116
sS'analyze balance.'
p117
Vflux balance analysis
p118
sS'time management'
p119
Vtime management
p120
sS'alternative energy'
p121
Valternative energy
p122
sS'optimization'
p123
Vmathematical optimization
p124
sS'human resource development'
p125
Vtraining and development
p126
sS'service operations management'
p127
Vmanufacturing %26 service operations management
p128
sS'technical support'
p129
Vtechnical support
p130
sS'test execution'
p131
Vtest execution engine
p132
sS'software development life cycle'
p133
Vsoftware development process
p134
sS'chinese culture'
p135
Vchinese culture
p136
sS'database design : oracle'
p137
Voracle designer
p138
sS'sql expert'
p139
Vcategory:user sql-4
p140
sS'openfoam'
p141
Vopenfoam
p142
sS'agile project management'
p143
Vagile management
p144
sVunderstand  of business management
p145
S'Business_service_management'
p146
sS'chassis'
p147
Vchassis
p148
sS'salesforce.com'
p149
Vsalesforce.com
p150
sS'accounts receivable'
p151
Vaccounts receivable
p152
sS'statistical modeling'
p153
Vstatistical model
p154
sS'cad/cam'
p155
Vcomputer-aided technologies
p156
sS'probabilistic graphical models'
p157
Vgraphical model
p158
sVproperty
p159
S'Property'
p160
sS'east asia'
p161
Veast asia
p162
sS'economics'
p163
Veconomics
p164
sS'nextgen'
p165
Vnextgen
p166
sVpharmaceutical simulations
p167
S'Simulations_Plus'
p168
sS'relationship building'
p169
Vrelationship marketing
p170
sS'enterprise content management'
p171
Venterprise content management
p172
sVfascinated by challenges
p173
S'Water_management_in_Greater_Mexico_City'
p174
sS'database management system'
p175
Vcategory:database management systems
p176
sS'military'
p177
Vmilitary
p178
sS'prolog'
p179
Vprolog
p180
sS'human rights'
p181
Vhuman rights
p182
sS'hspa'
p183
Vhspa
p184
sS'classification'
p185
Vclassification
p186
sS'population genetics'
p187
Vpopulation genetics
p188
sVtelecommunication engineering
p189
S'Telecommunications_engineering'
p190
sS'patience'
p191
Vpatience
p192
sS'unix'
p193
Vunix
p194
sS'service desk'
p195
Vservice desk (itsm)
p196
sS'basic finance'
p197
Vcategory:basic financial concepts
p198
sS'financial due diligence'
p199
Vdue diligence
p200
sS'auditing'
p201
Vaudit
p202
sS'entity life cycles'
p203
Viso 29110
p204
sS'experimentation'
p205
Vexperiment
p206
sS'genomics'
p207
Vgenomics
p208
sS'linux server'
p209
Vlinux
p210
sS'open source'
p211
Vopen source
p212
sS'humanitarian assistance'
p213
Vhumanitarian aid
p214
sS'it project lifecycle'
p215
Vsystems development life cycle
p216
sS'design specifications'
p217
Vdesign specification
p218
sS'risk management'
p219
Vrisk management
p220
sS'image editing'
p221
Vimage editing
p222
sS'music'
p223
Vmusic
p224
sS'dns'
p225
Vdomain name system
p226
sS'health economics/finance'
p227
Vhealth economics
p228
sVassessment
p229
S'Assessment'
p230
sS'entrepreneurship management'
p231
Ventrepreneurship
p232
sS'blackberry enterprise server'
p233
Vblackberry enterprise server
p234
sS'corporate website management'
p235
Vwebsite management outsourcing
p236
sS'web design'
p237
Vweb design
p238
sS'cardiology'
p239
Vcardiology
p240
sS'jmp'
p241
Vjmp (statistical software)
p242
sS'drug design'
p243
Vdrug design
p244
sS'quantum computing'
p245
Vquantum computer
p246
sS'computational linguistics'
p247
Vcomputational linguistics
p248
sS'energy efficiency'
p249
Vefficient energy use
p250
sS'lungo'
p251
Vlungo
p252
sS'vpn'
p253
Vvirtual private network
p254
sS'accounting.'
p255
Vaccounting
p256
sS'erp'
p257
Venterprise resource planning
p258
sVculinary chef
p259
S'Cooking_school'
p260
sVc learning
p261
S'C_(programming_language)'
p262
sS'intellectual property and patent  expert'
p263
Vintellectual property enterprise court
p264
sS'public management'
p265
Vpublic management
p266
sS'eclipse'
p267
Veclipse (software)
p268
sS'basic data analysis'
p269
Vdata analysis
p270
sVansys-fluent
p271
S'Ansys'
p272
sS'scripting'
p273
Vscripting language
p274
sS'engagement management'
p275
V
sVplanning skills
p276
S'Planning'
p277
sS'in'
p278
V.in
p279
sS'portfolio management'
p280
Vportfolio management
p281
sS'python programming'
p282
Vpython (programming language)
p283
sS'civic innovation'
p284
Voffice of social innovation and civic participation
p285
sS'business objects'
p286
Vbusiness objects
p287
sS'revenue analysis'
p288
Vrevenue
p289
sS'educational technology'
p290
Veducational technology
p291
sS'p&l analysis'
p292
Vpnl explained
p293
sS'portfolio optimization'
p294
Vportfolio optimization
p295
sS'electronic design (5+ years experience)'
p296
Velectronic document professional
p297
sS'contract negotiation'
p298
Vcontract management
p299
sS'sharepoint'
p300
Vsharepoint
p301
sS'entity framework'
p302
Ventity framework
p303
sS'globalization'
p304
Vglobalization
p305
sS'special operations'
p306
Vspecial operations
p307
sS'business planning'
p308
Vbusiness plan
p309
sS'business alliances'
p310
Vbusiness alliance
p311
sS'actionscript'
p312
Vactionscript
p313
sS'filenet'
p314
Vfilenet
p315
sS'rhadoop'
p316
Vrevolution analytics
p317
sS'strategy execution'
p318
Vstrategy execution
p319
sS'information technology management'
p320
Vinformation technology management
p321
sS'manuals'
p322
Vmanual
p323
sS'oracle e-business suite'
p324
Voracle applications
p325
sS'liasing'
p326
Vliaise
p327
sS'law'
p328
Vlaw
p329
sVbusiness plans presentations
p330
S'Business_plan'
p331
sS'fluid mechanics'
p332
Vfluid mechanics
p333
sS'mainframe architecture'
p334
Vibm mainframe
p335
sS'sparql'
p336
Vsparql
p337
sS'hadoop '
p338
Vapache hadoop
p339
sS'bootstrap'
p340
Vbootstrap (front-end framework)
p341
sS'strategic partnership development'
p342
Vstrategic partnership
p343
sVimprove the english
p344
S'Speak_Good_English_Movement'
p345
sS'e-commerce'
p346
Ve-commerce
p347
sS'algorithms'
p348
Valgorithm
p349
sS'life insurance'
p350
Vlife insurance
p351
sS'black box testing'
p352
Vblack-box testing
p353
sS'wind'
p354
Vwind
p355
sS'operations'
p356
Voperation
p357
sS'network security'
p358
Vnetwork security
p359
sS'itil v3 foundations certified'
p360
Vinformation technology infrastructure library
p361
sVintellectual property
p362
S'Intellectual_property'
p363
sVdiseñar estrategias para posicionar productos o servicios en los mercados
p364
S''
sS'r fundamentals'
p365
Vr-fundamentals.pdf
p366
sS'information search'
p367
Vinformation search process
p368
sS'jobs to be done'
p369
Voutcome-driven innovation
p370
sS'localization testing'
p371
Vinternationalization and localization
p372
sS'rnaseq'
p373
Vrna-seq
p374
sS'capital markets'
p375
Vcapital market
p376
sS'filing of records'
p377
Vrecord-oriented filesystem
p378
sS'r programming'
p379
Vr (programming language)
p380
sS'writing'
p381
Vwriting
p382
sS'non-profit volunteer'
p383
Vvolunteering
p384
sS'product cost analysis'
p385
Vfunction cost analysis
p386
sS'carbon management'
p387
Vcarbon process management
p388
sS'autocad mechanical'
p389
Vautocad
p390
sS'erlang'
p391
Verlang (programming language)
p392
sS'ccna'
p393
Vccna
p394
sS'dmaic'
p395
Vdmaic
p396
sS'survey design'
p397
Vsurvey
p398
sS'mathemathical decision making modeling'
p399
Vdecision theory
p400
sS'technical documentation'
p401
Vtechnical documentation
p402
sS'business transformation'
p403
Vbusiness transformation
p404
sS'enterprise systems architecture'
p405
Venterprise systems engineering
p406
sS'tourism'
p407
Vtourism
p408
sS'bank'
p409
Vbank
p410
sS'predictive modelling'
p411
Vpredictive modelling
p412
sS'database management'
p413
Vdatabase
p414
sS'proofreading'
p415
Vproofreading
p416
sS'computer aided design (cad)'
p417
Vcomputer-aided design
p418
sVgestão estratégica de negocios
p419
S''
sS'scientific data management'
p420
Vlaboratory informatics
p421
sS'requirements gathering'
p422
Vrequirements analysis
p423
sS'systems thinking'
p424
Vsystems thinking
p425
sS'end-to-end'
p426
Vend-to-end
p427
sS'axure'
p428
Vaxure rp
p429
sS'opinion mining'
p430
Vsentiment analysis
p431
sS'hadoop ecosystem'
p432
Vapache hadoop
p433
sS'gprs'
p434
Vgeneral packet radio service
p435
sS'graphic database'
p436
Vgraph database
p437
sS'mdm'
p438
Vmaster data management
p439
sS'linear optimization'
p440
Vlinear programming
p441
sS'full sdlc'
p442
Vsystems development life cycle
p443
sS'phase 2'
p444
Vphase 2
p445
sS'trading'
p446
Vtrade
p447
sS'restful services'
p448
Vrepresentational state transfer
p449
sVgestão de empresas ligada ramo de combustiveis
p450
g450
sS'relational databases'
p451
Vrelational database
p452
sS'particle physics'
p453
Vparticle physics
p454
sS'redis ...'
p455
Vredis
p456
sS'data modelling'
p457
Vdata modeling
p458
sS'smo'
p459
Vsocial media optimization
p460
sS'rf'
p461
Vradio frequency
p462
sS'sml'
p463
Vstandard ml
p464
sS'project delivery'
p465
Vproject delivery method
p466
sS'direct sales'
p467
Vdirect selling
p468
sS'software asset management'
p469
Vsoftware asset management
p470
sS'highly organized & strong analytical abilities'
p471
Vanalytical skill
p472
sS'creole'
p473
Vcreole
p474
sS'ado.net'
p475
Vado.net
p476
sS'foundation'
p477
Vfoundation
p478
sVitil® itilf
p479
g479
sS'monoclonal antibodies'
p480
Vmonoclonal antibody
p481
sS'microalgae biofuel production'
p482
Valgae fuel
p483
sS'ui/ux design'
p484
Vuser experience design
p485
sS'managerial'
p486
Vmanagerial economics
p487
sS'stakeholder analysis'
p488
Vstakeholder analysis
p489
sS'french and portuguese'
p490
Vportuguese in france
p491
sS'creative vision'
p492
Vzen vision w
p493
sVbig data concepts
p494
S'Big_data'
p495
sS'sensors'
p496
Vsensor
p497
sS'mvs'
p498
Vmvs
p499
sS'automated trading'
p500
Vautomated trading system
p501
sS'openssh'
p502
Vopenssh
p503
sS'creative direction'
p504
Vcreative director
p505
sS'biologics'
p506
Vbiopharmaceutical
p507
sS'project portfolio management'
p508
Vproject portfolio management
p509
sS'mvc'
p510
Vmodel%e2%80%93view%e2%80%93controller
p511
sS'iso'
p512
Vinternational organization for standardization
p513
sS'moodle web designer'
p514
V
sS'index funds'
p515
Vindex fund
p516
sS'contract management'
p517
Vcontract management
p518
sS'bloomberg'
p519
Vbloomberg
p520
sVquote preparation
p521
S'Si_vis_pacem,_para_bellum'
p522
sS'trade shows'
p523
Vtrade fair
p524
sS'proteomics'
p525
Vproteomics
p526
sS'operational planning'
p527
Voperational planning
p528
sS'property & casualty insurance'
p529
Vproperty insurance
p530
sS'construction safety'
p531
Vconstruction site safety
p532
sS'neo4j'
p533
Vneo4j
p534
sS'fully bilingual (native spanish - expert english level)'
p535
Vspanish language in the united states
p536
sS'process simulation'
p537
Vprocess simulation
p538
sS'microfabrication'
p539
Vmicrofabrication
p540
sS'investment banking'
p541
Vinvestment banking
p542
sS'vhdl'
p543
Vvhdl
p544
sS'design strategy'
p545
Vdesign strategy
p546
sS'all of them'
p547
Vall of them witches
p548
sS'struts'
p549
Vapache struts
p550
sS'recruiting'
p551
Vrecruitment
p552
sVinterpersonal skills
p553
S'Social_skills'
p554
sS'qualitative market research'
p555
Vqualitative marketing research
p556
sS'lifesciences'
p557
Vlife sciences
p558
sS'surgical instruments'
p559
Vsurgical instrument
p560
sS'python development'
p561
Vpython (programming language)
p562
sS'dimensional modeling'
p563
Vdimensional modeling
p564
sS'operating systems'
p565
Voperating system
p566
sS'text mining'
p567
Vtext mining
p568
sS'danish'
p569
Vdanish wikipedia
p570
sS'it strategy'
p571
Vtechnology strategy
p572
sS'innovation consulting'
p573
Vcategory:innovation consulting firms
p574
sS'resource management'
p575
Vresource management
p576
sS'strategic thinking'
p577
Vstrategic thinking
p578
sS'it service management'
p579
Vit service management
p580
sS'policy structuring and research'
p581
Vproblem structuring in decision-making processes
p582
sS'toronto'
p583
Vtoronto
p584
sS'solar energy'
p585
Vsolar energy
p586
sS'r&d engineering'
p587
Vresearch and development
p588
sS'financial analysis'
p589
Vfinancial analysis
p590
sVtarget
p591
S'Target_Corporation'
p592
sS'global business'
p593
Vglobal business network
p594
sVforensic
p595
S'Forensic_science'
p596
sVproject
p597
S'Project'
p598
sS'administra\xc3\xa7\xc3\xa3o'
p599
Vadministra%c3%a7%c3%a3o
p600
sS'cisco ios'
p601
Vcisco ios
p602
sS'export finance'
p603
Vuk export finance
p604
sS'fixed income'
p605
Vfixed income
p606
sS'bridge'
p607
Vbridge
p608
sS'itil process'
p609
Vinformation technology infrastructure library
p610
sS'photolithography'
p611
Vphotolithography
p612
sS'functional genomics'
p613
Vfunctional genomics
p614
sS'ran'
p615
Vran (film)
p616
sVstrategic development
p617
S'Strategic_planning'
p618
sS'business intelligence'
p619
Vbusiness intelligence
p620
sS'channel management'
p621
Vdistribution (business)
p622
sS'angularjs'
p623
Vangularjs
p624
sS'market basket analysis'
p625
Vaffinity analysis
p626
sS'unix shell scripting'
p627
Vshell script
p628
sS'microsoft server'
p629
Vmicrosoft servers
p630
sS'financial accounting'
p631
Vfinancial accounting
p632
sS'dbms'
p633
Vdatabase
p634
sS'control systems design'
p635
Vcontrol system
p636
sS'user experience'
p637
Vuser experience
p638
sS'usability testing'
p639
Vusability testing
p640
sS'logic programming'
p641
Vlogic programming
p642
sS'ogre3d'
p643
Vogre
p644
sS'social media marketing'
p645
Vsocial media marketing
p646
sS'project coordination'
p647
Vit project coordinator
p648
sS'chess'
p649
Vchess
p650
sS'natural language processing'
p651
Vnatural language processing
p652
sS'antitrust economics'
p653
Vunited states antitrust law
p654
sS'design for manufacturing'
p655
Vdesign for manufacturability
p656
sS'tunnels'
p657
Vtunnel
p658
sS'free thinking'
p659
Vfreethought
p660
sS'application design'
p661
Vjoint application design
p662
sS'complex networks'
p663
Vcomplex network
p664
sS'bss'
p665
Vbusiness support system
p666
sS'pentaho'
p667
Vpentaho
p668
sS'sql*loader'
p669
Vsql*loader faq
p670
sS'organization'
p671
Vorganization
p672
sS'ldap administration'
p673
Vldap admin
p674
sS'promotions'
p675
Vpromotion
p676
sS'acute care'
p677
Vacute care
p678
sS'poka yoke'
p679
Vpoka-yoke
p680
sVmore statistics
p681
S'Statistics'
p682
sS'm'
Vm
sS'dod'
p683
Vunited states department of defense
p684
sS'internal audit'
p685
Vinternal audit
p686
sS'os x'
p687
Vos x
p688
sS'windos device driver'
p689
Vwindows driver model
p690
sVenterprise
p691
S'Enterprise'
p692
sS'public financial management'
p693
Vpublic financial management
p694
sS'international project management'
p695
Vinternational project management association
p696
sS'supply chain'
p697
Vsupply chain
p698
sS'xampp'
p699
Vxampp
p700
sS'osteopath'
p701
Vosteopathy
p702
sS'strategic planning'
p703
Vstrategic planning
p704
sS'mediawiki'
p705
Vmediawiki
p706
sS'visual studio'
p707
Vmicrosoft visual studio
p708
sS'radio'
p709
Vradio
p710
sS'visualisation'
p711
Vvisualization
p712
sS'lesson planning'
p713
Vlesson plan
p714
sS'creative problem solving'
p715
Vcreative problem-solving
p716
sVworking with large datasets
p717
S'Big_data'
p718
sS'tivac)'
p719
Vtiva-c launchpad
p720
sS'hrm'
p721
Vhuman resource management
p722
sS'ldap'
p723
Vlightweight directory access protocol
p724
sS'roadmap creation'
p725
Vinternational technology roadmap for semiconductors
p726
sS'lightroom'
p727
Vadobe photoshop lightroom
p728
sS'iptables'
p729
Viptables
p730
sS'cryptography'
p731
Vcryptography
p732
sS'network programing'
p733
Vcomputer network programming
p734
sVcuriosity (willingness to challenge the status quo)
p735
S'Spiral_of_silence'
p736
sS'analysis of stock investment.'
p737
Vfundamental analysis
p738
sS'structural engineering'
p739
Vstructural engineering
p740
sS'comunication'
p741
Vcommunication
p742
sS'competitive'
p743
Vcompetition
p744
sS'dw'
p745
Vdeutsche welle
p746
sS'modern trade.'
p747
Vtrade
p748
sS'event planning'
p749
Vevent management
p750
sS'vsam'
p751
Vvirtual storage access method
p752
sVshopper marketing
p753
S'Shopper_marketing'
p754
sS'emg'
p755
Velectromyography
p756
sS'slidify'
p757
Vlayouts
p758
sS'digital strategy'
p759
Vdigital strategy
p760
sVhighly organized
p761
S'Organizing'
p762
sS'compras'
p763
Vcompra social
p764
sS'business strategy & planning skills'
p765
Vstrategic planning
p766
sS'sequence analysis'
p767
Vsequence analysis
p768
sS'architecture'
p769
Varchitecture
p770
sS'emr'
p771
Velectronic health record
p772
sS'analytical'
p773
Vanalytic
p774
sS'high availability'
p775
Vhigh availability
p776
sVmergers
p777
S'Mergers_and_acquisitions'
p778
sS'academic tutoring'
p779
Vtutor
p780
sS'active directory'
p781
Vactive directory
p782
sVbranding
p783
S'Branding'
p784
sS'testing'
p785
Vsoftware testing
p786
sVdata s
p787
S'A_Fistful_of_Datas'
p788
sS'operating room'
p789
Voperating theater
p790
sS'analytics'
p791
Vanalytics
p792
sS'ibm bi'
p793
Vibm cognos business intelligence
p794
sS'line balancing'
p795
Vline balancing
p796
sS'strategic management'
p797
Vstrategic management
p798
sS'problem-solving & decision-making'
p799
Vdecision-making
p800
sS'water quality modeling'
p801
Vwater quality modelling
p802
sS'system integration testing'
p803
Vsystem integration testing
p804
sS'teamcenter'
p805
Vteamcenter
p806
sS'software r'
p807
Vr (programming language)
p808
sVconceptual
p809
S'Conceptual'
p810
sS'xsl'
p811
Vxsl
p812
sS'requirements traceability'
p813
Vrequirements traceability
p814
sS'strong problem-solving'
p815
Vcreative problem-solving
p816
sS'business strategies'
p817
Vstrategic management
p818
sS'customer service'
p819
Vcustomer service
p820
sS'biochemical assay'
p821
Vassay
p822
sS'html5'
p823
Vhtml5
p824
sS'design of analog'
p825
Vintegrated circuit design
p826
sS'scwcd'
p827
Voracle certification program
p828
sVretail audit search
p829
S'Observational_techniques'
p830
sS'basic (r'
p831
Vbasic reproduction number
p832
sS'perforce'
p833
Vperforce
p834
sS'quantitative research'
p835
Vquantitative research
p836
sS'data sciences'
p837
Vdata science
p838
sS'security clearance'
p839
Vsecurity clearance
p840
sS'technical analysis'
p841
Vtechnical analysis
p842
sS'customer support'
p843
Vcustomer support
p844
sS'oracle crm'
p845
Voracle crm
p846
sS'xforms'
p847
Vxforms
p848
sS'data integration'
p849
Vdata integration
p850
sS'negotiation'
p851
Vnegotiation
p852
sS'shell scripting'
p853
Vshell script
p854
sVspread sheets
p855
S'Spreadsheet'
p856
sS'job search advice'
p857
Vemployment website
p858
sS'software project management'
p859
Vsoftware project management
p860
sS'rup methodologies'
p861
Vrational unified process
p862
sS'organisational'
p863
Vorganization
p864
sS'telecommunications'
p865
Vtelecommunication
p866
sS'stakeholder management'
p867
Vstakeholder management
p868
sS'management consulting; leadership coaching'
p869
Vleadership development
p870
sS'tecnologia da informa\xc3\xa7\xc3\xa3o'
p871
Vtecnologia da informa%c3%a7%c3%a3o
p872
sS'codeigniter'
p873
Vcodeigniter
p874
sS'competitor analysis'
p875
Vcompetitor analysis
p876
sS'apache camel'
p877
Vapache camel
p878
sVdeep learning
p879
S'Deep_learning'
p880
sS'carbon footprinting'
p881
Vcarbon footprint
p882
sS'github'
p883
Vgithub
p884
sS'tax law'
p885
Vtax law
p886
sS'information technology'
p887
Vinformation technology
p888
sS'organization & time management'
p889
Vtime management
p890
sS'fashion design and culinary chef'
p891
Vgiada de laurentiis
p892
sS'numpy'
p893
Vnumpy
p894
sS'administrative support'
p895
Vcategory:office and administrative support occupations
p896
sS'analysis services'
p897
Vmicrosoft analysis services
p898
sS'international business'
p899
Vinternational business
p900
sS'exhibit design'
p901
Vexhibit design
p902
sS'decision trees'
p903
Vdecision tree
p904
sS'project management office'
p905
Vproject management office
p906
sS'excellent operational managemnt skill'
p907
Voperations management
p908
sS'aviation'
p909
Vaviation
p910
sS'aix'
p911
Vibm aix
p912
sS'lean six sigma'
p913
Vlean six sigma
p914
sS'program development'
p915
Vsoftware development
p916
sS'pilot plant'
p917
Vpilot plant
p918
sVadvanced python
p919
S'Python_(missile)'
p920
sS'javascipt'
p921
Vjavascript
p922
sS'dashboard'
p923
Vdashboard (management information systems)
p924
sS'project finance advisory'
p925
Vadviser
p926
sVdataflow analysis
p927
S'Data-flow_analysis'
p928
sS'product management'
p929
Vproduct management
p930
sS'technical sales presentations'
p931
Vsales presentation
p932
sS'advertising research'
p933
Vadvertising research
p934
sS'it outsourcing'
p935
Voutsourcing
p936
sS'elearning'
p937
Ve-learning
p938
sS'ip'
p939
Vip
p940
sS'ir'
p941
Vir
p942
sS'it'
p943
Vit
p944
sS'e-commerce seo'
p945
Vsearch engine marketing
p946
sS'database administration'
p947
Vdatabase administrator
p948
sS'sas'
p949
Vsas (software)
p950
sS'biological physics'
p951
Vbiophysics
p952
sS'kanban'
p953
Vkanban
p954
sS'team-work skill'
p955
Vteamwork
p956
sS'ia'
p957
Via
p958
sS'international real estate'
p959
Vinternational real estate
p960
sS'pavement design'
p961
Vpavement engineering
p962
sS'customer experience management'
p963
Vcustomer experience
p964
sS'ccnp'
p965
Vcisco career certifications
p966
sS'microsoft bi suite'
p967
V
sVpatent
p968
S'Patent'
p969
sS'optical imaging'
p970
Voptical imaging
p971
sVoperations knowledge
p972
S'Operational_definition'
p973
sS'rnc'
p974
Vrnc
p975
sS'online advertising'
p976
Vonline advertising
p977
sS'design thinking'
p978
Vdesign thinking
p979
sS'mcse'
p980
Vmicrosoft certified professional
p981
sS'moose'
p982
Vmoose
p983
sS'jboss seam'
p984
Vjboss seam
p985
sVmore biz dev
p986
S'Business_development'
p987
sS'instrumentation'
p988
Vinstrumentation
p989
sS'decision-making'
p990
Vdecision-making
p991
sS'medical devices'
p992
Vmedical device
p993
sS'ireport'
p994
Vireport
p995
sS'waterfall'
p996
Vwaterfall
p997
sS'language teaching'
p998
Vlanguage education
p999
sVgestão empresarial
p1000
S''
sS'credit management'
p1001
Vcredit manager
p1002
sS'mobility strategy'
p1003
Vmobile data management strategy
p1004
sS'digital image processing'
p1005
Vdigital image processing
p1006
sVliderança de equipe
p1007
g1007
sS'hospital sales'
p1008
Vchrist hospital (jersey city, new jersey)
p1009
sVimage analysis
p1010
S'Image_analysis'
p1011
sS'solar cells'
p1012
Vsolar cell
p1013
sS'maximo'
p1014
Vmaximo (mro)
p1015
sS'materials'
p1016
Vmaterial
p1017
sS'reporting systems'
p1018
Vaviation safety reporting system
p1019
sS'obiee'
p1020
Voracle business intelligence suite enterprise edition
p1021
sS'people skills'
p1022
Vpeople skills
p1023
sS'investments'
p1024
Vinvestment
p1025
sS'web applications'
p1026
Vweb application
p1027
sS'solaris'
p1028
Vsolaris (operating system)
p1029
sS'biostatistics'
p1030
Vbiostatistics
p1031
sS'proprietary trading'
p1032
Vproprietary trading
p1033
sS'business consulting'
p1034
Vbusiness consultant
p1035
sS'curriculum design'
p1036
Vcurriculum
p1037
sS'trademarks'
p1038
Vtrademark
p1039
sVyes
p1040
S'Yes_(band)'
p1041
sS'distributed systems'
p1042
Vdistributed computing
p1043
sS'hospitality management'
p1044
Vhospitality management studies
p1045
sS'visualization'
p1046
Vvisualization
p1047
sS'server administration'
p1048
Vserver administrator
p1049
sS'water resources'
p1050
Vwater resources
p1051
sS'administration and maintenance of data dictionaries'
p1052
Vdata dictionary
p1053
sS'agile'
p1054
Vagile software development
p1055
sS'uv-vis'
p1056
Vultraviolet%e2%80%93visible spectroscopy
p1057
sS'5s'
p1058
V5s (methodology)
p1059
sS'speak fluently spanish'
p1060
Vspanish language in the united states
p1061
sS'fortran'
p1062
Vfortran
p1063
sS'gui design'
p1064
Vuser interface design
p1065
sS'oracle sql'
p1066
Voracle sql developer
p1067
sS'java programming'
p1068
Vjava (programming language)
p1069
sS'strategic communications'
p1070
Vstrategic communication
p1071
sS'corporate social responsibility'
p1072
Vcorporate social responsibility
p1073
sS'knockoutjs'
p1074
Vknockoutjs
p1075
sS'easymock'
p1076
Vmock object
p1077
sS'wcf'
p1078
Vwindows communication foundation
p1079
sS'm/c learning'
p1080
Vmachine learning
p1081
sS'algorithmics'
p1082
Valgorithmics inc.
p1083
sS'intellij idea'
p1084
Vintellij idea
p1085
sS'social networking'
p1086
Vsocial network
p1087
sS'adobe illustrator'
p1088
Vadobe illustrator
p1089
sS'graphic design'
p1090
Vgraphic design
p1091
sVscripting troubleshooting
p1092
S'Cross-site_scripting'
p1093
sS'pharmacist'
p1094
Vpharmacist
p1095
sS'xp'
p1096
Vwindows xp
p1097
sS'software development (20+ years experience)'
p1098
Vwhen-should-you-call-yourself-a-senior-developer
p1099
sS'bpo'
p1100
Vbusiness process outsourcing
p1101
sS'communications research'
p1102
Vcommunication research (journal)
p1103
sS'online marketing'
p1104
Vonline advertising
p1105
sS'managed care'
p1106
Vmanaged care
p1107
sVpython skills
p1108
S'Core_Python_Programming'
p1109
sS'security'
p1110
Vsecurity
p1111
sS'rstudio'
p1112
Vrstudio
p1113
sS'biz dev'
p1114
Vbusiness development
p1115
sVportuguese
p1116
S''
sS'text analytics'
p1117
Vtext mining
p1118
sS'spring-framework'
p1119
Vspring framework
p1120
sS'desktop configuration'
p1121
Vfederal desktop core configuration
p1122
sS'powepivot'
p1123
Vpowerpivot
p1124
sS'value stream mapping'
p1125
Vvalue stream mapping
p1126
sS'data processing & analytics'
p1127
Vin-database processing
p1128
sS'data migration'
p1129
Vdata migration
p1130
sS'microwave'
p1131
Vmicrowave
p1132
sS'device modeling'
p1133
Vsemiconductor device modeling
p1134
sS'greedy algorithms'
p1135
Vgreedy algorithm
p1136
sS'uml'
p1137
Vunified modeling language
p1138
sS'statistical analysis using ms excel'
p1139
Vlist of statistical packages
p1140
sS'health & safety workplace'
p1141
Voccupational safety and health
p1142
sS'product development'
p1143
Vnew product development
p1144
sS'derivatives'
p1145
Vderivative (finance)
p1146
sS'marketing'
p1147
Vmarketing
p1148
sS'operating room sales'
p1149
Voperating room management
p1150
sS'restructuring'
p1151
Vrestructuring
p1152
sS'bmc remedy'
p1153
Vbmc remedy action request system
p1154
sS'conversational french'
p1155
Vcajun french
p1156
sS'plm'
p1157
Vproduct lifecycle management
p1158
sS'manufacturing'
p1159
Vmanufacturing
p1160
sS'basic artificial intelligence'
p1161
Vartificial intelligence
p1162
sS'strategy development'
p1163
Vstrategic planning
p1164
sS'postgresql'
p1165
Vpostgresql
p1166
sS'joomla'
p1167
Vjoomla
p1168
sS'product innovation'
p1169
Vproduct innovation
p1170
sS'j2me'
p1171
Vjava platform, micro edition
p1172
sS'r programming langauge'
p1173
Vr (programming language)
p1174
sS'vehicle crash analysis'
p1175
Vcrash simulation
p1176
sS'soa'
p1177
Vservice-oriented architecture
p1178
sS'consulting'
p1179
Vconsulting
p1180
sS'trading systems'
p1181
Vautomated trading system
p1182
sS'protein chemistry'
p1183
Vprotein
p1184
sVall business related
p1185
S'Business_education'
p1186
sVmba
p1187
S'Master_of_Business_Administration'
p1188
sS'entrepreneur'
p1189
Ventrepreneurship
p1190
sS'haskell'
p1191
Vhaskell (programming language)
p1192
sS'distance learning'
p1193
Vdistance education
p1194
sS'environmental policy'
p1195
Venvironmental policy
p1196
sS'sox'
p1197
Vsarbanes%e2%80%93oxley act
p1198
sS'copyright law'
p1199
Vcopyright law of the united states of america
p1200
sS'jdbc'
p1201
Vjava database connectivity
p1202
sS'gis'
p1203
Vgeographic information system
p1204
sS'abaqus'
p1205
Vabaqus
p1206
sS'sustainable development'
p1207
Vsustainable development
p1208
sS'exceptional communication'
p1209
Vcommunications training
p1210
sS'offshoring'
p1211
Voffshoring
p1212
sS'wordpress'
p1213
Vwordpress
p1214
sS'adaptability'
p1215
Vadaptability
p1216
sS'astrophysics'
p1217
Vastrophysics
p1218
sS'campaign management'
p1219
Venterprise campaign management
p1220
sS'model thinking'
p1221
Vscott e. page
p1222
sVpassionate about retail
p1223
S'Decathlon_Group'
p1224
sS'pals'
p1225
Vpals
p1226
sS'hospitals'
p1227
Vhospital
p1228
sS'synthesis'
p1229
Vsynthesis
p1230
sS'raman'
p1231
Vraman spectroscopy
p1232
sS'webi'
p1233
Vweb intelligence
p1234
sS'radiometry'
p1235
Vradiometry
p1236
sS'econometric modeling'
p1237
Veconometric model
p1238
sS'wireless'
p1239
Vwireless
p1240
sS'balanced scorecard'
p1241
Vbalanced scorecard
p1242
sS'incorporation'
p1243
Vincorporation
p1244
sS'msbi'
p1245
Vbusiness intelligence tools
p1246
sS'bash script'
p1247
Vbash (unix shell)
p1248
sVadvanced data analysis
p1249
S'Analytics'
p1250
sS'bidw'
p1251
Vbusiness intelligence
p1252
sS'sales efectiveness'
p1253
Vsales effectiveness
p1254
sVbids
p1255
S'Bidding'
p1256
sS'google docs'
p1257
Vgoogle docs
p1258
sS'data architecture'
p1259
Vdata architecture
p1260
sS'electrical engineering'
p1261
Velectrical engineering
p1262
sS'strategy consulting'
p1263
Vrisk and strategic consulting
p1264
sS'organizational analysis'
p1265
Vorganizational analysis
p1266
sS'powershell'
p1267
Vwindows powershell
p1268
sS'higher education'
p1269
Vhigher education
p1270
sVcomputing
p1271
S'Computing'
p1272
sS'spark mllib'
p1273
Vmllib-naive-bayes.html
p1274
sS'theoretical physics'
p1275
Vtheoretical physics
p1276
sS'front office'
p1277
Vfront office
p1278
sS'accounting'
p1279
Vaccounting
p1280
sS'network architecture'
p1281
Vnetwork architecture
p1282
sS'economic research'
p1283
Veconomic research service
p1284
sS'lambdaj'
p1285
Va-practical-introduction-to-lambdaj
p1286
sS'market development'
p1287
Vmarket development
p1288
sS'cron'
p1289
Vcron
p1290
sS'excel'
p1291
Vmicrosoft excel
p1292
sS'leadership quality'
p1293
Vleadership
p1294
sS'epm'
p1295
Venterprise performance management
p1296
sS'sybase'
p1297
Vsybase
p1298
sS'network hardware'
p1299
Vnetworking hardware
p1300
sS'computer science'
p1301
Vcomputer science
p1302
sS'jenkins'
p1303
Vjenkins (software)
p1304
sS'technology planning'
p1305
Vstrategic technology plan
p1306
sS'node'
p1307
Vnode
p1308
sS'toad'
p1309
Vtoad
p1310
sS'technology management'
p1311
Vtechnology management
p1312
sS'football'
p1313
Vfootball
p1314
sS'customer retention'
p1315
Vcustomer retention
p1316
sS'sales force development'
p1317
Vsalesforce.com
p1318
sS'incident management'
p1319
Vincident management
p1320
sVgoogle chrome extensions
p1321
S'Google_Chrome_Extensions'
p1322
sS'sql'
p1323
Vsql
p1324
sS'office management'
p1325
Voffice management
p1326
sS'neuroscience'
p1327
Vneuroscience
p1328
sS'financial audits'
p1329
Vfinancial audit
p1330
sS'disaster recovery'
p1331
Vdisaster recovery
p1332
sS'open-minded'
p1333
Vopen-mindedness
p1334
sS'cloud computing'
p1335
Vcloud computing
p1336
sS'amazon web services (aws)'
p1337
Vamazon web services
p1338
sS'business strategy'
p1339
Vstrategic management
p1340
sS'broadband'
p1341
Vbroadband
p1342
sS'exploratory data analysis'
p1343
Vexploratory data analysis
p1344
sS'technical sales '
p1345
Vsales engineering
p1346
sVbusiness skills
p1347
S'Skills_for_Business'
p1348
sS'data cleaning'
p1349
Vdata cleansing
p1350
sS'roi'
p1351
Vreturn on investment
p1352
sS'diplomacy'
p1353
Vdiplomacy
p1354
sS'oss'
p1355
Voss
p1356
sS'smed'
p1357
Vsingle-minute exchange of die
p1358
sS'event management software'
p1359
Vevent management software
p1360
sS'switches'
p1361
Vswitch
p1362
sS'pnl management'
p1363
Vproduct management
p1364
sS'mql4'
p1365
Vmetatrader 4
p1366
sS'fluent in the german language'
p1367
Vlist of multilingual presidents of the united states
p1368
sS'technical leadership'
p1369
Vmodes of leadership
p1370
sS'social robotics'
p1371
Vsocial robot
p1372
sS'microblogging'
p1373
Vmicroblogging
p1374
sS'flask'
p1375
Vflask (web framework)
p1376
sS'multimedia systems'
p1377
Vmultimedia
p1378
sS'project management skills'
p1379
Vproject management
p1380
sS'java enterprise edition'
p1381
Vjava platform, enterprise edition
p1382
sVinovation
p1383
S'Innovation'
p1384
sS'algorithmic design'
p1385
Valgorithm design
p1386
sS'crystal xcelsius'
p1387
Vbusiness objects
p1388
sVtechnical consulting
p1389
S'Information_technology_consulting'
p1390
sS'glms'
p1391
Vglms glucosamine-6-phosphate activated ribozyme
p1392
sS'wcdma'
p1393
Vw-cdma (umts)
p1394
sS'systems evaluation'
p1395
Vservice evaluation system
p1396
sS'servicing'
p1397
Vservicing
p1398
sS'powervm'
p1399
Vpowervm
p1400
sS'blast'
p1401
Vblast
p1402
sS'atomic force microscopy'
p1403
Vatomic force microscopy
p1404
sS'political polling'
p1405
Vopinion poll
p1406
sS'gui'
p1407
Vgraphical user interface
p1408
sS'ruby on rails'
p1409
Vruby on rails
p1410
sS'ug courses relevant to data analytics: prob. and stats'
p1411
Vstatistics
p1412
sS'basic python'
p1413
Vsimpleprograms
p1414
sS'civil engineering'
p1415
Vcivil engineering
p1416
sS'real estate'
p1417
Vreal estate
p1418
sS'bilingual-english/spanish'
p1419
Vspain
p1420
sVparallel numerical methods for math
p1421
S'Numerical_analysis'
p1422
sS'ict'
p1423
Vict
p1424
sS'competition law'
p1425
Vcompetition law
p1426
sS'css javascript'
p1427
Vwikipedia:catalogue of css classes
p1428
sS'cgi'
p1429
Vcommon gateway interface
p1430
sS'pmp'
p1431
Vproject management professional
p1432
sS'german - speak/read/write'
p1433
Vlist of multilingual presidents of the united states
p1434
sVproduct promotion
p1435
S'Promotion_(marketing)'
p1436
sS'cobol'
p1437
Vcobol
p1438
sS'project management in tenders and bids'
p1439
Vcall for bids
p1440
sS'process mapping'
p1441
Vbusiness process mapping
p1442
sS'probabilistic modelling'
p1443
Vcategory:probabilistic models
p1444
sS'pmo'
p1445
Vproject management office
p1446
sS'pmi'
p1447
Vpmi
p1448
sS'vendita emozionale e sensoriale'
p1449
Vmarketing
p1450
sS'crystal report'
p1451
Vcrystal reports
p1452
sS'deduplication'
p1453
Vdata deduplication
p1454
sS'b.tech'
p1455
Vbachelor of technology
p1456
sS'ssis'
p1457
Vsql server integration services
p1458
sS'nosql bigdata'
p1459
Vnosql
p1460
sS'creative writing'
p1461
Vcreative writing
p1462
sS'professional services'
p1463
Vprofessional services
p1464
sS'job search support'
p1465
Vsupported employment
p1466
sS'basic forensic'
p1467
Vforensic science
p1468
sS'know  java'
p1469
Vdid you know
p1470
sS'windchill'
p1471
Vwind chill
p1472
sVimplementation of systems
p1473
S'Implementation'
p1474
sS'transition management'
p1475
Vtransition management
p1476
sS'french'
p1477
V
sS'water'
p1478
Vwater
p1479
sS'fluency in about six different languages'
p1480
Vpolyglotism
p1481
sS'financial management'
p1482
Vfinancial management
p1483
sS'mockups'
p1484
Vmockup
p1485
sS'apache'
p1486
Vapache
p1487
sVteacher
p1488
S'Teacher'
p1489
sVchange
p1490
S'Change'
p1491
sVdomain knowledge
p1492
S'Domain_knowledge'
p1493
sS'tobacco and a glass company'
p1494
Vdipping tobacco
p1495
sVintermediate machine learning
p1496
S'Transduction_(machine_learning)'
p1497
sS'technology advisory'
p1498
Vadviser
p1499
sS'vb.net'
p1500
Vvisual basic .net
p1501
sS'dcf valuation'
p1502
Vdiscounted cash flow
p1503
sS'thin films'
p1504
Vthin film
p1505
sS'software testing'
p1506
Vsoftware testing
p1507
sS'jav'
p1508
Vjav
p1509
sS'vsphere'
p1510
Vvmware vsphere
p1511
sS'english-chinese translation'
p1512
Vtranslation
p1513
sS'hospitality'
p1514
Vhospitality
p1515
sS'navigation'
p1516
Vnavigation
p1517
sS'numerical methods'
p1518
Vnumerical analysis
p1519
sS'excel modeling'
p1520
Vfinancial modeling
p1521
sS'team-oriented'
p1522
Vteam%20oriented
p1523
sS'desktop publishing'
p1524
Vdesktop publishing
p1525
sS'fascinated by challenges & change'
p1526
Vfascination ~eternal love mix~
p1527
sS'database admin'
p1528
Vdatabase administrator
p1529
sS'test driven development'
p1530
Vtest-driven development
p1531
sS'hydroelectric'
p1532
Vhydroelectricity
p1533
sS'account management'
p1534
Vaccount manager
p1535
sS'sustainable energy'
p1536
Vsustainable energy
p1537
sS'smart working'
p1538
Vsmart work
p1539
sVsql  
p1540
S'SQL'
p1541
sS'business model canvas'
p1542
Vbusiness model canvas
p1543
sS'ca7'
p1544
Vca-7 (software)
p1545
sS'perl'
p1546
Vperl
p1547
sS'stochastic differential equations'
p1548
Vstochastic differential equation
p1549
sS'visio'
p1550
Vmicrosoft visio
p1551
sS'basic python programming'
p1552
Vpython (programming language)
p1553
sS'health policy analysis'
p1554
Vhealth policy
p1555
sVtheoretical
p1556
S'Theory'
p1557
sS'data management'
p1558
Vdata management
p1559
sVmaintenance of data dictionaries
p1560
S'Data_dictionary'
p1561
sS'cloud applications'
p1562
Vcategory:cloud applications
p1563
sS'architecture frameworks'
p1564
Varchitecture framework
p1565
sS'test analysis'
p1566
Vpost-hoc analysis
p1567
sS'neurophysiology'
p1568
Vneurophysiology
p1569
sS'mechanical and electronic engineering'
p1570
Vmechanical engineering
p1571
sS'black belt'
p1572
Vblack belt
p1573
sS'uat'
p1574
Vacceptance testing
p1575
sS'business process'
p1576
Vbusiness process
p1577
sVvisual
p1578
S'Visual.ly'
p1579
sS'geophysics'
p1580
Vgeophysics
p1581
sS'oop'
p1582
Vobject-oriented programming
p1583
sVdata processing
p1584
S'Data_processing'
p1585
sVmany more
p1586
S'How_Many_More_Times'
p1587
sS'stochastic analysis'
p1588
Vstochastic calculus
p1589
sS'research project management'
p1590
Vproject management
p1591
sS'technology consulting'
p1592
Vinformation technology consulting
p1593
sS'dhtml'
p1594
Vdynamic html
p1595
sS'functional programming'
p1596
Vfunctional programming
p1597
sS'facilitating'
p1598
Vfacilitation
p1599
sVvisualisations
p1600
S'Visualization'
p1601
sS'business concept development'
p1602
Vnew product development
p1603
sS'machine learning'
p1604
Vmachine learning
p1605
sVcam
p1606
S'Cam'
p1607
sS'gestione del cliente'
p1608
Vcustomer relationship management
p1609
sS'aviation operations'
p1610
Vunited states senate commerce subcommittee on aviation operations, safety, and security
p1611
sS'cluster analysis'
p1612
Vcluster analysis
p1613
sS'cae'
p1614
Vcae
p1615
sS'cad'
p1616
Vcomputer-aided design
p1617
sS'ca-scheduler'
p1618
Vca:schedule
p1619
sS'private cloud'
p1620
Vvirtual private cloud
p1621
sS'nursing'
p1622
Vnursing
p1623
sS'quantum information'
p1624
Vquantum information
p1625
sS'lead management'
p1626
Vlead management
p1627
sS'p&l'
p1628
Vincome statement
p1629
sS'certified scrum master csm'
p1630
Vscrum (software development)
p1631
sS'data sciences (coursera - introduction to data science)'
p1632
Vhow-do-i-become-a-data-scientist
p1633
sS'presentation and interpersonal skills'
p1634
Vtalk%3ainterpersonal skills
p1635
sS'nems'
p1636
Vnems
p1637
sS'sql oracle'
p1638
Voracle sql developer
p1639
sS'spc'
p1640
Vstatistical process control
p1641
sS'random forest'
p1642
Vrandom forest
p1643
sS'business modeling'
p1644
Vbusiness model
p1645
sS'green building'
p1646
Vgreen building
p1647
sS'windows rt'
p1648
Vwindows rt
p1649
sS'simulink'
p1650
Vsimulink
p1651
sS'sharp mind'
p1652
Vsharp mind
p1653
sS'provisioning'
p1654
Vprovisioning
p1655
sS'executing test plans'
p1656
Vtest management
p1657
sS'computer vision'
p1658
Vcomputer vision
p1659
sS'adobe creative suite'
p1660
Vadobe creative suite
p1661
sS'rock mechanics'
p1662
Vrock mechanics
p1663
sS'customer engagement'
p1664
Vcustomer engagement
p1665
sS'document drafting'
p1666
Vdraft document
p1667
sS'html 5'
p1668
Vhtml5
p1669
sVtroubleshooting: hardware
p1670
S'Troubleshooting'
p1671
sS'data mining technique'
p1672
Vdata mining
p1673
sS'employee relations'
p1674
Vemployee relationship management
p1675
sS'computational biology'
p1676
Vcomputational biology
p1677
sS'microsoft publisher'
p1678
Vmicrosoft publisher
p1679
sS'executive management'
p1680
Vsenior management
p1681
sS'quantum field theory'
p1682
Vquantum field theory
p1683
sS'business management.'
p1684
Vmanagement
p1685
sS'medical sales'
p1686
Vpharmaceutical sales representative
p1687
sS'sustainability'
p1688
Vsustainability
p1689
sS'mac'
p1690
Vmac
p1691
sS'oracle data integrator'
p1692
Voracle data integrator
p1693
sS'data wrangling'
p1694
Vdata wrangling
p1695
sS'iso 27000'
p1696
Viec 27000
p1697
sS'integer optimization'
p1698
Vinteger programming
p1699
sS'data'
p1700
Vdata
p1701
sS'distributed team management'
p1702
Vdistributed management
p1703
sS'commodity'
p1704
Vcommodity
p1705
sS'object oriented design'
p1706
Vobject-oriented design
p1707
sS'fiber optics'
p1708
Voptical fiber
p1709
sS'ibm cognos bi'
p1710
Vibm cognos business intelligence
p1711
sS'people management'
p1712
Vpeople management
p1713
sS'subdivisions'
p1714
Vsubdivisions (song)
p1715
sS'arena simulation software'
p1716
Varena (software)
p1717
sS'tutoring'
p1718
Vtutor
p1719
sS'ppc'
p1720
Vpay per click
p1721
sS'hr outsourcing'
p1722
Vrecruitment process outsourcing
p1723
sS'film photography'
p1724
Vphotographic film
p1725
sS'umts'
p1726
Vuniversal mobile telecommunications system
p1727
sS'record linkage'
p1728
Vrecord linkage
p1729
sS'data warehouse architecture'
p1730
Vdata warehouse architectures
p1731
sS'technical architecture'
p1732
Vinformation technology architecture
p1733
sS'business english'
p1734
Vbusiness english
p1735
sS'functional mathematics'
p1736
Vfunctional (mathematics)
p1737
sS'quality control'
p1738
Vquality control
p1739
sVplc
p1740
S'Programmable_logic_controller'
p1741
sS'credit risk'
p1742
Vcredit risk
p1743
sS'octave programming'
p1744
Vgnu octave
p1745
sS'arduino'
p1746
Varduino
p1747
sS'commodity risk management'
p1748
Vcommodity risk
p1749
sS'process engineering'
p1750
Vprocess engineering
p1751
sS'exploratory testing'
p1752
Vexploratory testing
p1753
sS'product marketing'
p1754
Vproduct marketing
p1755
sS'gtm'
p1756
Vgtm
p1757
sS'ideation'
p1758
Videation
p1759
sS'active directory administration'
p1760
Vactive directory
p1761
sS'digital media'
p1762
Vdigital media
p1763
sS'coaching'
p1764
Vcoaching
p1765
sVcasualty insurance
p1766
S'Casualty_insurance'
p1767
sS'defect tracking'
p1768
Vdefect tracking
p1769
sS'microstrategy'
p1770
Vmicrostrategy
p1771
sS'istqb'
p1772
Vinternational software testing qualifications board
p1773
sS'suspension'
p1774
Vsuspension
p1775
sS'survey research'
p1776
Vsurvey research
p1777
sS'dementia care mapping- basic user'
p1778
Vdementia care mapping
p1779
sVvisits to clients sites for trouble shooting
p1780
S'Cross-site_scripting'
p1781
sS'radio network planning'
p1782
Vradio resource management
p1783
sS'order management'
p1784
Vorder management system
p1785
sVlearning all skills required to complete a real world project
p1786
S'Situated_learning'
p1787
sS'finance'
p1788
Vfinance
p1789
sS'network planning'
p1790
Vnetwork planning and design
p1791
sVug courses relevant to data analytics: prob.
p1792
S'Statistics_education'
p1793
sS'user interface design'
p1794
Vuser interface design
p1795
sS'drilling'
p1796
Vdrilling
p1797
sS'version control'
p1798
Vrevision control
p1799
sVmozilla firefox
p1800
S'Firefox'
p1801
sS'analytical skills'
p1802
Vanalytical skill
p1803
sS'iso 20000'
p1804
Viec 20000
p1805
sS'innovation management'
p1806
Vinnovation management
p1807
sS'patent searching'
p1808
Vcategory:patent search services
p1809
sVmonitoring solutions
p1810
S'Comparison_of_network_monitoring_systems'
p1811
sS'logistic regression'
p1812
Vlogistic regression
p1813
sS'financial controlling'
p1814
Vcomptroller
p1815
sS'advanced excel'
p1816
Vmicrosoft excel
p1817
sS'key account development'
p1818
Vaccount manager
p1819
sVstudy setup
p1820
S'Wizard_of_Oz_experiment'
p1821
sS'javas'
p1822
Vjavascript
p1823
sS'customer service and client solutions'
p1824
Vservices.html
p1825
sS'renewable energy'
p1826
Vrenewable energy
p1827
sS'aerospace mechanisms'
p1828
Vcanaerospace
p1829
sS'channel marketing'
p1830
Vmarketing channel
p1831
sVorganizational skills
p1832
S'Organizing'
p1833
sS'excel dashboards'
p1834
Vdashboard (business)
p1835
sS'dashboard design & development'
p1836
Vdashboard (business)
p1837
sVdementia care mapping-  user
p1838
S'Dementia_Care_Mapping'
p1839
sS'big data manipulation'
p1840
Vdata-intensive computing
p1841
sS'business modelling'
p1842
Vbusiness model
p1843
sS'air force'
p1844
Vunited states air force
p1845
sS'factory'
p1846
Vfactory
p1847
sS'healthy nutrition'
p1848
Vnutrition
p1849
sS'mahout'
p1850
Vapache mahout
p1851
sS'e-gov coordinator'
p1852
Vcompat.egov
p1853
sS'android sdk'
p1854
Vandroid software development
p1855
sS'gamification'
p1856
Vgamification
p1857
sVadvance programming
p1858
S'Advanced_Perl_Programming'
p1859
sS'internet'
p1860
Vinternet
p1861
sS'computer hardware'
p1862
Vcomputer hardware
p1863
sS'hci'
p1864
Vhuman%e2%80%93computer interaction
p1865
sVhigh-speed electronic devices
p1866
S'Semiconductor_device'
p1867
sS'hibernate'
p1868
Vhibernate (java)
p1869
sS'theory'
p1870
Vtheory
p1871
sS'branch banking'
p1872
Vbranch (banking)
p1873
sS'compatibility testing'
p1874
Vcompatibility testing
p1875
sS'procmail'
p1876
Vprocmail
p1877
sS'business analytics'
p1878
Vbusiness analytics
p1879
sS'ajax'
p1880
Vajax (programming)
p1881
sS'git'
p1882
Vgit (software)
p1883
sS'technology strategy'
p1884
Vtechnology strategy
p1885
sS'power electronics'
p1886
Vpower electronics
p1887
sS'openam'
p1888
Vopenam
p1889
sS'training'
p1890
Vtraining
p1891
sS'research leadership'
p1892
Vleadership studies
p1893
sS'natural resources'
p1894
Vnatural resource
p1895
sS'mobile communications'
p1896
Vgsm
p1897
sS'programming'
p1898
Vcomputer programming
p1899
sS'ocaml'
p1900
Vocaml
p1901
sS'data analyst'
p1902
Vdata analysis
p1903
sS'tecniche di vendita'
p1904
Vtecniche di vendita
p1905
sVhold in my youth
p1906
S'Friend_of_My_Youth'
p1907
sS'opencv'
p1908
Vopencv
p1909
sS'website development'
p1910
Vweb development
p1911
sS'ansys'
p1912
Vansys
p1913
sS'support vector machines'
p1914
Vsupport vector machine
p1915
sS'eu competition law'
p1916
Veuropean union competition law
p1917
sS'languages translation and interpretation'
p1918
Vinstitute of translation %26 interpreting
p1919
sS'customer insight'
p1920
Vcustomer insight
p1921
sS'solutions marketing'
p1922
Vmarketing
p1923
sS'engineering of embedded system'
p1924
Vembedded system
p1925
sS'vehicle dynamics'
p1926
Vvehicle dynamics
p1927
sS'spanish'
p1928
V
sS'mathematical modeling'
p1929
Vmathematical model
p1930
sS'parametrics'
p1931
Vparametric
p1932
sS'sports management'
p1933
Vsport management
p1934
sS'image processing'
p1935
Vimage processing
p1936
sS'software verification'
p1937
Vsoftware verification
p1938
sS'data mapping'
p1939
Vdata mapping
p1940
sS'engineer'
p1941
Vengineer
p1942
sS'fmri'
p1943
Vfunctional magnetic resonance imaging
p1944
sS'facilitation'
p1945
Vfacilitation
p1946
sS'system architecture'
p1947
Vsystems architecture
p1948
sS'enterprise architecture'
p1949
Venterprise architecture
p1950
sS'customer segmentation analysis'
p1951
Vmarket segmentation
p1952
sS'google app engine'
p1953
Vgoogle app engine
p1954
sS'typing'
p1955
Vtyping
p1956
sS'mining'
p1957
Vmining
p1958
sS'it architecture'
p1959
Vinformation technology architecture
p1960
sS'gest\xc3\xa3o de empresas ligada ramo de combustiveis'
p1961
Vgest%c3%a3o da frota de ve%c3%adculos
p1962
sS'enterprise valuation'
p1963
Venterprise value
p1964
sS'channel strategys'
p1965
Vmarketing channel
p1966
sS'scanning electron microscopy'
p1967
Vscanning electron microscope
p1968
sS'mems'
p1969
Vmicroelectromechanical systems
p1970
sS'microsoft vba/vb/vb.net'
p1971
Vvisual basic
p1972
sS'inventor'
p1973
Vautodesk inventor
p1974
sVms office
p1975
S'Microsoft_Office'
p1976
sS'stlc'
p1977
Vsoftware testing life cycle
p1978
sS'educational leadership'
p1979
Veducational leadership
p1980
sS'remote sensing'
p1981
Vremote sensing
p1982
sS'performance point'
p1983
Vmicrosoft office performancepoint server
p1984
sS'lucene'
p1985
Vlucene
p1986
sS'organizational leadership'
p1987
Vleadership studies
p1988
sS'r'
Vr (programming language)
p1989
sS'business management'
p1990
Vmanagement
p1991
sS'start-ups'
p1992
Vstartup company
p1993
sS'proactive'
p1994
Vproactiv
p1995
sS'physiotherapist'
p1996
Vphysical therapy
p1997
sS'quantitative data analysis'
p1998
Vquantitative research
p1999
sS'identity management'
p2000
Videntity management
p2001
sS'ant'
p2002
Vant
p2003
sS'inpatient'
p2004
Vinpatient care
p2005
sVsafety workplace
p2006
S'Workplace_safety'
p2007
sS'critical analysis'
p2008
Vcritical thinking
p2009
sS'commissioning'
p2010
Vproject commissioning
p2011
sS'sap'
p2012
Vsap se
p2013
sS'java/j2ee'
p2014
Vjava platform, enterprise edition
p2015
sS'cassandra'
p2016
Vapache cassandra
p2017
sS'microcontrollers'
p2018
Vmicrocontroller
p2019
sVpractical knowledge in data science
p2020
S'Data_science'
p2021
sS'objective'
p2022
Vobjective
p2023
sS'solution architect -  cloud computing'
p2024
Vibm%20cloud%20computing%20reference%20architecture%203.0
p2025
sS'competitive intelligence'
p2026
Vcompetitive intelligence
p2027
sS'patient safety'
p2028
Vpatient safety
p2029
sS'valuation modeling'
p2030
Vvaluation (finance)
p2031
sVoral presentation skills
p2032
S'Presentation'
p2033
sS'desktop hardware'
p2034
Vdesktop and mobile architecture for system hardware
p2035
sS'social media ads management'
p2036
Vsocial media
p2037
sS'account reconciliation'
p2038
Vreconciliation (accounting)
p2039
sS'virologist'
p2040
Vvirology
p2041
sS'biomedical device design'
p2042
Vmedical device
p2043
sVbussines
p2044
S'Business'
p2045
sS'latex'
p2046
Vlatex
p2047
sS'test management'
p2048
Vtest management
p2049
sS'design patterns'
p2050
Vsoftware design pattern
p2051
sS'system testing'
p2052
Vsystem testing
p2053
sS'sql server'
p2054
Vmicrosoft sql server
p2055
sS'microsoft word'
p2056
Vmicrosoft word
p2057
sS'scrum master csm'
p2058
Vscrum (software development)
p2059
sS'nltk'
p2060
Vnatural language toolkit
p2061
sS'political strategy'
p2062
Vpolitical strategy
p2063
sS'tncc'
p2064
Vthomas nelson community college
p2065
sS'mechanical testing'
p2066
Vcategory:mechanical tests
p2067
sS'liquidity'
p2068
Vmarket liquidity
p2069
sS'nlp'
p2070
Vneuro-linguistic programming
p2071
sS'genetic engineering'
p2072
Vgenetic engineering
p2073
sS'database administrator for db2 luw'
p2074
Vdb2 database administration tool.html
p2075
sS'german'
p2076
V
sS'ss7'
p2077
Vsignalling system no. 7
p2078
sS'visual c++'
p2079
Vvisual c%2b%2b
p2080
sS'social policy'
p2081
Vsocial policy
p2082
sS'financial planning'
p2083
Vfinancial plan
p2084
sS'outsourcing'
p2085
Voutsourcing
p2086
sS'email marketing'
p2087
Vemail marketing
p2088
sVinterpretation
p2089
S'Interpretation'
p2090
sS'bug tracking'
p2091
Vbug tracking system
p2092
sS'xml'
p2093
Vxml
p2094
sS'public outreach'
p2095
Voutreach
p2096
sS'experiment and study setup and implementation'
p2097
Vwizard of oz experiment
p2098
sVmotivated with a proactive approach to work
p2099
S'Proactivity'
p2100
sS'web scraping'
p2101
Vweb scraping
p2102
sS'analytic'
p2103
Vanalytic
p2104
sS'j2ee application development'
p2105
Vjava platform, enterprise edition
p2106
sS'enthusiasm'
p2107
Venthusiasm
p2108
sVadministração
p2109
g2109
sS'android development'
p2110
Vandroid software development
p2111
sVawareness
p2112
S'Awareness'
p2113
sS'social return on investment'
p2114
Vsocial return on investment
p2115
sS'data modeling'
p2116
Vdata modeling
p2117
sS'environmental education'
p2118
Venvironmental education
p2119
sS'moss 2007'
p2120
Vsharepoint
p2121
sS'mandarin'
p2122
Vmandarin
p2123
sS'ssh'
p2124
Vsecure shell
p2125
sS'systems biology'
p2126
Vsystems biology
p2127
sS'm&a modeling'
p2128
Vdilution analysis
p2129
sS'pnl e vendita'
p2130
Vprogrammazione neuro linguistica
p2131
sS'programming & scripting troubleshooting'
p2132
Vserver-side scripting
p2133
sS'amazon ec2'
p2134
Vamazon elastic compute cloud
p2135
sS'c++'
p2136
Vc%2b%2b
p2137
sVilustração
p2138
g2138
sS'and jewlery making'
p2139
Vcategory:jewellery making
p2140
sS'marketing and digital marketing consultant'
p2141
Vdigital marketing
p2142
sS'ui testing'
p2143
Vgraphical user interface testing
p2144
sS'kibana'
p2145
Vlogstash
p2146
sS'numerical analy.'
p2147
Vnumerical analysis
p2148
sS'creative strategy'
p2149
Vcreative-strategy.html
p2150
sS'surgery'
p2151
Vsurgery
p2152
sS'back-end'
p2153
Vfront and back ends
p2154
sS'lean startup'
p2155
Vlean startup
p2156
sS'outreach skills'
p2157
Vseminari-wikipedia presentacio-saorin.pdf
p2158
sS'quantitative finance'
p2159
Vmathematical finance
p2160
sS'backbone.js'
p2161
Vbackbone.js
p2162
sS'corporate finance'
p2163
Vcorporate finance
p2164
sS'programming languages'
p2165
Vprogramming language
p2166
sS'managing'
p2167
Vmanagement
p2168
sS'health informatics'
p2169
Vhealth informatics
p2170
sS'object-oriented analysis & design'
p2171
Vobject-oriented analysis and design
p2172
sS'biofuels'
p2173
Vbiofuel
p2174
sS'big data analytics'
p2175
Vbig data
p2176
sV3
S'3_(number)'
p2177
sS'structural bioinformatics'
p2178
Vstructural bioinformatics
p2179
sS'computational physics'
p2180
Vcomputational physics
p2181
sS'regulatory affairs'
p2182
Vregulatory affairs
p2183
sS'applied project management'
p2184
Vproject management
p2185
sS'jboss application server'
p2186
Vwildfly
p2187
sS'analysis of information'
p2188
Vdata analysis
p2189
sS'great motivator'
p2190
Vmotivation
p2191
sS'infrastructure'
p2192
Vinfrastructure
p2193
sVlanguages translation
p2194
S'Translation'
p2195
sS'social network analysis'
p2196
Vsocial network analysis
p2197
sS'combinatorial optimization'
p2198
Vcombinatorial optimization
p2199
sS'relationship management'
p2200
Vcustomer relationship management
p2201
sVjewlery making
p2202
S'Category:Jewellery_making'
p2203
sS'pl/ sql'
p2204
Vsql
p2205
sS'js'
p2206
Vjavascript
p2207
sS'data structures'
p2208
Vdata structure
p2209
sS'sparc'
p2210
Vsparc
p2211
sS'process excellence'
p2212
Vbusiness excellence
p2213
sS'faults diagnosis'
p2214
Vfault detection and isolation
p2215
sS'spark'
p2216
Vspark
p2217
sS'jboss portal'
p2218
Vlist of jboss software
p2219
sS'environmental management systems'
p2220
Venvironmental management system
p2221
sVsocial development
p2222
S'Social_development_theory'
p2223
sS'radio network optimization'
p2224
Vgsm radio frequency optimization
p2225
sS'mechanical drawings'
p2226
Vmechanical systems drawing
p2227
sS'data visualization'
p2228
Vdata visualization
p2229
sS'technical presentations'
p2230
Vtechnical presentation
p2231
sS'facility design'
p2232
Vfile:sns-facility-design.jpg
p2233
sS'many'
p2234
Vmany
p2235
sS'game testing'
p2236
Vgame testing
p2237
sS'solidworks'
p2238
Vsolidworks
p2239
sS'gwt'
p2240
Vgoogle web toolkit
p2241
sS'itil\xc2\xae itilf'
p2242
Vinformation technology infrastructure library
p2243
sS'first aid'
p2244
Vfirst aid
p2245
sS'chemical process safety'
p2246
Vprocess safety
p2247
sS'fx trading'
p2248
Vforeign exchange market
p2249
sS'toyota production system'
p2250
Vtoyota production system
p2251
sVproficiency in word processing
p2252
S'Bilingual_Interactive_Activation_Plus'
p2253
sS'phpmyadmin'
p2254
Vphpmyadmin
p2255
sS'forecasting'
p2256
Vforecasting
p2257
sS'requirement gathering'
p2258
Vrequirements analysis
p2259
sS'characterization'
p2260
Vcharacterization
p2261
sS'robotics'
p2262
Vrobotics
p2263
sS'pos'
p2264
Vpoint of sale
p2265
sS'energy saving: reduction in energy consumption in compressed air systems in various enterprises'
p2266
Vmodern-management-for-efficient-compressed-air-systems-theo-giamakidis-energy-manager-green-air-energy
p2267
sS'basic machine learning knowledge'
p2268
Vmachine learning
p2269
sS'social networking websites'
p2270
Vsocial networking service
p2271
sS'data warehousing'
p2272
Vdata warehouse
p2273
sS'data mining'
p2274
Vdata mining
p2275
sS'qlikview'
p2276
Vqlik
p2277
sS'sap r/3'
p2278
V3
sVinformed
p2279
S'Informed_consent'
p2280
sS'ability to work under pressure'
p2281
Vability%20to%20work%20under%20pressure
p2282
sVproduction
p2283
S'Production'
p2284
sVscidb
p2285
S'SciDB'
p2286
sS'prince2'
p2287
Vprince2
p2288
sS'finance and accounts'
p2289
Vfinancial accounting
p2290
sS'business analyst'
p2291
Vbusiness analyst
p2292
sS'statistical data analysis'
p2293
Vdata analysis
p2294
sS'datawarehouses'
p2295
Vdata warehouse
p2296
sS'molecular biology'
p2297
Vmolecular biology
p2298
sS'spotfire'
p2299
Vspotfire
p2300
sS'antivirus'
p2301
Vantivirus software
p2302
sS'photo-lithography'
p2303
Vphotolithography
p2304
sS'sales operations'
p2305
Vsales operations
p2306
sS'fmcg'
p2307
Vfast-moving consumer goods
p2308
sS'basic operations knowledge'
p2309
Voperational definition
p2310
sS'ruby'
p2311
Vruby (programming language)
p2312
sS'programming & scripting'
p2313
Vscripting language
p2314
sS'bpmn'
p2315
Vbusiness process model and notation
p2316
sS'spanish-speaking'
p2317
Vlist of countries where spanish is an official language
p2318
sS'neurosurgery'
p2319
Vneurosurgery
p2320
sS'network optimization'
p2321
Vnetwork theory
p2322
sS'statisticts'
p2323
Vstatistics
p2324
sS'international trade'
p2325
Vinternational trade
p2326
sVeconomic analysis
p2327
S'Foundations_of_Economic_Analysis'
p2328
sS'social bookmarking'
p2329
Vsocial bookmarking
p2330
sS'application development'
p2331
Vsoftware development
p2332
sS'application design & development'
p2333
Vddwiki.nsf
p2334
sS'ios development'
p2335
Vios
p2336
sS'customer aquisition'
p2337
Vcustomer acquisition management
p2338
sS'surgical device sales'
p2339
Vmedical device
p2340
sS'simulations'
p2341
Vsimulation
p2342
sS'green belt'
p2343
Vgreen belt
p2344
sS'pitching ideas'
p2345
Vpitch (filmmaking)
p2346
sS'ivr'
p2347
Vinteractive voice response
p2348
sS'susy'
p2349
Vsupersymmetry
p2350
sS'sas programming'
p2351
Vsas (software)
p2352
sS'technology'
p2353
Vtechnology
p2354
sVtecnologia da informação
p2355
g2355
sS'smoke testing'
p2356
Vsmoke testing
p2357
sS'process scheduler'
p2358
Vscheduling (computing)
p2359
sS'linear models'
p2360
Vlinear model
p2361
sS'program management'
p2362
Vprogram management
p2363
sVstrategic planning.
p2364
S'Strategic_planning'
p2365
sS'structural biology'
p2366
Vstructural biology
p2367
sS'marketing and business plans presentations'
p2368
Vbusiness plan
p2369
sS'html'
p2370
Vhtml
p2371
sS'adminkit'
p2372
Vinternet explorer administration kit
p2373
sS'root cause analysis'
p2374
Vroot cause analysis
p2375
sS'model building'
p2376
Vmodel building
p2377
sS'pro engineer'
p2378
Vpro
p2379
sS'genetic programming'
p2380
Vgenetic programming
p2381
sVoil
p2382
S'Oil'
p2383
sS'project execution'
p2384
Vproject management
p2385
sS'internal controls'
p2386
Vinternal control
p2387
sS't-sql'
p2388
Vtransact-sql
p2389
sS'it management software'
p2390
Vhp it management software
p2391
sS'judgment and decision making'
p2392
Vheuristics in judgment and decision-making
p2393
sS'hummingbird'
p2394
Vhummingbird
p2395
sS'earth observation'
p2396
Vearth observation
p2397
sS'awesomeness'
p2398
Vawesomeness
p2399
sS'weka '
p2400
Vweka (machine learning)
p2401
sS'creativity skills'
p2402
Vcreativity
p2403
sS'consumer behaviour'
p2404
Vconsumer behaviour
p2405
sS'matplotlib'
p2406
Vmatplotlib
p2407
sS'emergency room'
p2408
Vemergency department
p2409
sS'etl'
p2410
Vextract, transform, load
p2411
sS'environmental engineering'
p2412
Venvironmental engineering
p2413
sS'protege'
p2414
Vprot%c3%a9g%c3%a9 (software)
p2415
sS'digital marketing'
p2416
Vdigital marketing
p2417
sS'strategic financial planning'
p2418
Vfinancial planning (business)
p2419
sS'nosql'
p2420
Vnosql
p2421
sV(r
p2422
S'R_(programming_language)'
p2423
sS'performance testing'
p2424
Vsoftware performance testing
p2425
sS'rest'
p2426
Vrepresentational state transfer
p2427
sS'ngos'
p2428
Vnon-governmental organization
p2429
sS'gdb'
p2430
Vgnu debugger
p2431
sS'internationalization'
p2432
Vinternationalization
p2433
sS'polish'
p2434
Vpolish wikipedia
p2435
sS'information design'
p2436
Vinformation design
p2437
sS'change management'
p2438
Vchange management
p2439
sS'samba'
p2440
Vsamba
p2441
sS'autocad'
p2442
Vautocad
p2443
sS'public administration'
p2444
Vpublic administration
p2445
sS'hp service manager'
p2446
Vhp business service management
p2447
sS'd3.js'
p2448
Vd3.js
p2449
sS'subversion'
p2450
Vapache subversion
p2451
sS'minimally invasive procedures'
p2452
Vinvasiveness of surgical procedures
p2453
sS'prezi'
p2454
Vprezi
p2455
sS'java algorithms data structures python javascript'
p2456
Vassociative array
p2457
sS'expression blend'
p2458
Vmicrosoft blend
p2459
sS'libreoffice'
p2460
Vlibreoffice
p2461
sS'netapp'
p2462
Vnetapp
p2463
sS'international business in china'
p2464
Vchina europe international business school
p2465
sS'it systems'
p2466
Vinformation systems
p2467
sS'cost control engineering'
p2468
Vcost engineering
p2469
sS'intrapreneurship'
p2470
Vintrapreneurship
p2471
sVread
p2472
S'Read'
p2473
sS'windows server'
p2474
Vwindows server
p2475
sS'corporate sustainability'
p2476
Vcorporate sustainability
p2477
sS'orthopedic'
p2478
Vorthopedic surgery
p2479
sS'paper presentation'
p2480
Vwhat is a paper presentation
p2481
sS'flexplm'
p2482
Vwindchill (software)
p2483
sS'web2py'
p2484
Vweb2py
p2485
sS'customer experience'
p2486
Vcustomer experience
p2487
sS'technology roadmapping'
p2488
Vtechnology roadmap
p2489
sS'silverlight'
p2490
Vmicrosoft silverlight
p2491
sS'wbs'
p2492
Vwork breakdown structure
p2493
sS'data mining algorithms'
p2494
Vdata mining
p2495
sS'organization and leadership development'
p2496
Vleadership development
p2497
sS'brand research'
p2498
Vresearch %26 branding group
p2499
sS'excel powerpivot'
p2500
Vpowerpivot
p2501
sS'contract law'
p2502
Vcontract
p2503
sS'drainage'
p2504
Vdrainage
p2505
sS'firstdoc'
p2506
Vdoc
p2507
sS'apache 2'
p2508
Vapache http server
p2509
sS'regulatory compliance'
p2510
Vregulatory compliance
p2511
sS'anti-spam'
p2512
Vanti-spam techniques
p2513
sS'organization of events'
p2514
Vcategory:organized events
p2515
sS'international sales'
p2516
Vdomestic international sales corporation
p2517
sS'descriptive analysis'
p2518
Vdescriptive statistics
p2519
sS'venture capital'
p2520
Vventure capital
p2521
sS'financial markets'
p2522
Vfinancial market
p2523
sS'public relations'
p2524
Vpublic relations
p2525
sVpmbok® 5ª edição
p2526
g2526
sS'rule engine'
p2527
Vbusiness rules engine
p2528
sS'information retrieval'
p2529
Vinformation retrieval
p2530
sS'software design'
p2531
Vsoftware design
p2532
sS'osi model'
p2533
Vosi model
p2534
sS'resorts'
p2535
Vresort
p2536
sS'military operations'
p2537
Vmilitary operation
p2538
sS'organizing'
p2539
Vorganizing
p2540
sS'change leadership'
p2541
Vchange management
p2542
sS'pharmaceutical industry'
p2543
Vpharmaceutical industry
p2544
sS'market risk'
p2545
Vmarket risk
p2546
sS'pilates'
p2547
Vpilates
p2548
sS'genetics'
p2549
Vgenetics
p2550
sS'website localization'
p2551
Vwebsite localization
p2552
sS'redis'
p2553
Vredis
p2554
sS'bigdata'
p2555
Vbig data
p2556
sS'legal'
p2557
Vlaw
p2558
sS'equity research'
p2559
Vsecurities research
p2560
sS'computational investment'
p2561
Vindex.php?title=computational investing i
p2562
sS'spatial econometrics'
p2563
Vspatial econometrics
p2564
sS'hustle'
p2565
Vhustle (tv series)
p2566
sS'oracle data miner'
p2567
Voracle data mining
p2568
sS'open source projects'
p2569
Vopen source
p2570
sS'assembly'
p2571
Vassembly
p2572
sS'microsoft crm'
p2573
Vmicrosoft dynamics crm
p2574
sS'business'
p2575
Vbusiness
p2576
sS'asterisk'
p2577
Vasterisk (pbx)
p2578
sS'manufacturing engineering'
p2579
Vmanufacturing engineering
p2580
sS'international arbitration'
p2581
Vinternational arbitration
p2582
sVpython (s)
p2583
S'Python'
p2584
sS'complex problem solving'
p2585
Vproblem solving
p2586
sS'leadership'
p2587
Vleadership
p2588
sS'biomedical engineering'
p2589
Vbiomedical engineering
p2590
sS'solar thermal'
p2591
Vsolar thermal energy
p2592
sS'organic chemistry'
p2593
Vorganic chemistry
p2594
sS'control system engineering'
p2595
Vcontrol engineering
p2596
sS'oracle development (pl/sql'
p2597
Voracle sql developer
p2598
sS'business process re-engineering'
p2599
Vbusiness process reengineering
p2600
sS'metaheuristic algorithms'
p2601
Vmetaheuristic
p2602
sS'test case generation'
p2603
Vtest automation
p2604
sS'compiler construction'
p2605
Vcompiler construction
p2606
sS'xna'
p2607
Vmicrosoft xna
p2608
sS'cuda'
p2609
Vcuda
p2610
sS'autotools'
p2611
Vgnu build system
p2612
sS'road'
p2613
Vroad
p2614
sS'outlook'
p2615
Vmicrosoft outlook
p2616
sS'fundraising'
p2617
Vfundraising
p2618
sS'franchising'
p2619
Vfranchising
p2620
sS'communication'
p2621
Vcommunication
p2622
sS'film production'
p2623
Vfilmmaking
p2624
sS'due diligence'
p2625
Vdue diligence
p2626
sS'web application development'
p2627
Vweb application development
p2628
sS'feasibiity studies'
p2629
Vfeasibility study
p2630
sVaccounts
p2631
S'Account'
p2632
sS'capital equipment sales'
p2633
Vcapital equipment
p2634
sS'corel draw'
p2635
Vcoreldraw
p2636
sVbusiness develoment
p2637
S'Business_development'
p2638
sS'php4/5'
p2639
Vphp
p2640
sS'electrical safety'
p2641
Velectrical safety testing
p2642
sS'instala\xc3\xa7\xc3\xa3o'
p2643
Vinstala%c3%a7%c3%a3o (arte)
p2644
sS'legacy modernization'
p2645
Vsoftware modernization
p2646
sS'strategic consulting'
p2647
Vrisk and strategic consulting
p2648
sS'commodity pricing'
p2649
Vcommodity price index
p2650
sS'core network'
p2651
Vcore network
p2652
sVdata munging
p2653
S'Data_wrangling'
p2654
sS'pivot tables'
p2655
Vpivot table
p2656
sS'adobe after effects'
p2657
Vadobe after effects
p2658
sVhealth economics
p2659
S'Health_economics'
p2660
sS'glpsol'
p2661
Vgnu linear programming kit
p2662
sS'quote preparation and follow up.'
p2663
Vkeep calm and carry on
p2664
sS'chemical engineering'
p2665
Vchemical engineering
p2666
sS'computer security'
p2667
Vcomputer security
p2668
sVprofiency in data analysis
p2669
S'EF_English_Proficiency_Index'
p2670
sS'emc storage'
p2671
Vemc corporation
p2672
sS'oracle soa'
p2673
Voracle soa suite
p2674
sS'illustrator'
p2675
Vadobe illustrator
p2676
sVpatent   
p2677
S'Patent'
p2678
sS'cellular communications'
p2679
Vcellular communication (biology)
p2680
sS'real estate transactions'
p2681
Vreal estate transaction
p2682
sS'quality process building for organizations'
p2683
Vbusiness process reengineering
p2684
sS'comparative law'
p2685
Vcomparative law
p2686
sS'requirements analysis'
p2687
Vrequirements analysis
p2688
sS'sales'
p2689
Vsales
p2690
sS'developing training strategies'
p2691
Vexecutive development
p2692
sS'nagios'
p2693
Vnagios
p2694
sS'objective-c'
p2695
Vobjective-c
p2696
sS'ssrs'
p2697
Vsql server reporting services
p2698
sS'microsoft office;'
p2699
Vmicrosoft office
p2700
sS'oracle rac'
p2701
Voracle rac
p2702
sVimprove the strategic analysis
p2703
S'Business_analysis'
p2704
sS'adso'
p2705
Vadso
p2706
sS'quickbooks'
p2707
Vquickbooks
p2708
sS'microcontrollers (pic'
p2709
Vpic microcontroller
p2710
sS'basic visualization and design'
p2711
Vvisualization (computer graphics)
p2712
sS'kdevelop'
p2713
Vkdevelop
p2714
sS'scheduling management'
p2715
Vschedule (project management)
p2716
sS'biochemistry'
p2717
Vbiochemistry
p2718
sS'mathematica'
p2719
Vmathematica
p2720
sS'website updating'
p2721
Vweb content management system
p2722
sV5
S'5_(number)'
p2723
sS'database development'
p2724
Vdatabase
p2725
sS'mathematics'
p2726
Vmathematics
p2727
sS'hybrid electric vehicles'
p2728
Vhybrid electric vehicle
p2729
sS'coso framework'
p2730
Vcommittee of sponsoring organizations of the treadway commission
p2731
sVphys
p2732
S'Phys.org'
p2733
sS'general business analysis'
p2734
Va guide to the business analysis body of knowledge
p2735
sS'knowledge-hungry learner'
p2736
Vhungry%20for%20knowledge
p2737
sS'aws'
p2738
Vamazon web services
p2739
sS'data management and analysis'
p2740
Vclinical data management
p2741
sS'collaborative problem solving'
p2742
Vcollaborative problem solving
p2743
sS'mechanical'
p2744
Vmechanical
p2745
sS'operations analysis'
p2746
Vperformance operational analysis
p2747
sS'and machine learning)'
p2748
Vmachine learning
p2749
sS'event driven architecture'
p2750
Vevent-driven architecture
p2751
sS'twitter api'
p2752
Vtwitter
p2753
sS'simpack'
p2754
Vsimpack
p2755
sS'stochastic modeling'
p2756
Vstochastic modelling (insurance)
p2757
sVall
p2758
S'All_(band)'
p2759
sS'qualitative research'
p2760
Vqualitative research
p2761
sS'chinese'
p2762
Vchinese wikipedia
p2763
sS'geoinformatics'
p2764
Vgeoinformatics
p2765
sS'outstanding interpersonal communication skills'
p2766
Vinterpersonal-skills.asp
p2767
sS'borland delphi'
p2768
Vdelphi (programming language)
p2769
sS'microsoft sql server'
p2770
Vmicrosoft sql server
p2771
sS'intercultural communication'
p2772
Vintercultural communication
p2773
sS'numeracy'
p2774
Vnumeracy
p2775
sS'interior design'
p2776
Vinterior design
p2777
sS'japanese language'
p2778
Vjapanese language
p2779
sS'belaying'
p2780
Vbelaying
p2781
sS'agile methodologies'
p2782
Vagile software development
p2783
sS'pci dss'
p2784
Vpayment card industry data security standard
p2785
sVpresentation
p2786
S'Presentation'
p2787
sS'oscommerce'
p2788
Voscommerce
p2789
sS'materials science'
p2790
Vmaterials science
p2791
sVdata product
p2792
S'Product_data_management'
p2793
sS'client interfacing skills'
p2794
Vskills framework for the information age
p2795
sS'presales'
p2796
Vpresales
p2797
sS'communication and computing'
p2798
Vcomputer-mediated communication
p2799
sS'network operations'
p2800
Vnetwork operations center
p2801
sS'mergers & acquisitions'
p2802
Vmergers and acquisitions
p2803
sS'sustainability consulting'
p2804
Vsustainability consultant
p2805
sS'intellectual property research'
p2806
Vintellectual property research institute of australia
p2807
sS'edutainment'
p2808
Veducational entertainment
p2809
sS'brand consulting'
p2810
Vcategory:branding consultants
p2811
sS'efficient communication'
p2812
Vcommunication
p2813
sS'bioconductor'
p2814
Vbioconductor
p2815
sS'lisp'
p2816
Vlisp (programming language)
p2817
sS'computer skills'
p2818
Vcomputer literacy
p2819
sS'mapreduce'
p2820
Vmapreduce
p2821
sS'equity funding'
p2822
Vprivate equity fund
p2823
sS'rf and high-speed electronic devices'
p2824
Vwi-fi
p2825
sS'semiconductor fabrication'
p2826
Vsemiconductor device fabrication
p2827
sVrelevant real-world project experience
p2828
S'Authentic_Learning'
p2829
sS'reactive ion etching'
p2830
Vreactive-ion etching
p2831
sS'tem'
p2832
Vtransmission electron microscopy
p2833
sS'quatitative data analysis'
p2834
Vquantitative research
p2835
sS'written communication'
p2836
Vcategory:written communication
p2837
sS'systems analysis'
p2838
Vsystems analysis
p2839
sS'marketing and business plans development'
p2840
Vbusiness plan
p2841
sS'intraoperative monitoring'
p2842
Vintraoperative neurophysiological monitoring
p2843
sVdesign
p2844
S'Design'
p2845
sS'space business'
p2846
Vspace industry
p2847
sS'batch processing'
p2848
Vbatch processing
p2849
sVmulti-ethnic environments
p2850
S'Multicultural_marketing'
p2851
sS'websphere process server'
p2852
Vibm websphere process server
p2853
sS'academic writing'
p2854
Vacademic writing
p2855
sS'excellent programmer'
p2856
Vprogrammer
p2857
sS'internet marketing'
p2858
Vonline advertising
p2859
sS'cold calling'
p2860
Vcold calling
p2861
sS'powder x-ray diffraction'
p2862
Vpowder diffraction
p2863
sS'non-profit management'
p2864
Vmaster of nonprofit organizations
p2865
sS'microbiology'
p2866
Vmicrobiology
p2867
sS'fashion design'
p2868
Vfashion design
p2869
sS'bayesian networks'
p2870
Vbayesian network
p2871
sS'development management'
p2872
Vdevelopment management
p2873
sS'proficiency in word processing and spread sheets'
p2874
Vannabelle's+efolio
p2875
sS'eda techniques'
p2876
Vexploratory data analysis
p2877
sS'plc and ladder logic'
p2878
Vladder logic
p2879
sS'drive test'
p2880
Vdrive testing
p2881
sS'go-to-market strategy'
p2882
Vgo to market
p2883
sS'segmentation'
p2884
Vsegmentation
p2885
sS'open mpi'
p2886
Vopen mpi
p2887
sS'discoverer 4i'
p2888
Vcorona (satellite)
p2889
sS'3d studio max'
p2890
Vautodesk 3ds max
p2891
sS'problem solving skills'
p2892
Vproblem solving
p2893
sS'written & oral presentation skills'
p2894
Voral-communication-definition-types-advantages.html
p2895
sVfirebase
p2896
S'Firebase'
p2897
sS'system security'
p2898
Vcontrol system security
p2899
sS'b2b'
p2900
Vb2b
p2901
sS'wide range of software engineering and telecommunication engineering'
p2902
Velectrical engineering
p2903
sS'cambridge engineering selector(ces) software'
p2904
V
sS'search'
p2905
V
sS'compliance'
p2906
Vcompliance (film)
p2907
sVexperience
p2908
S'Experience'
p2909
sS'advertising'
p2910
Vadvertising
p2911
sS'strategy analysis'
p2912
Vstrategic planning
p2913
sS'google adwords'
p2914
Vadwords
p2915
sS'trainer'
p2916
Vtrainer
p2917
sS'mineral processing'
p2918
Vmineral processing
p2919
sVbusiness strategy 
p2920
S'Strategic_management'
p2921
sS'business administration'
p2922
Vbusiness administration
p2923
sS'semiconductors'
p2924
Vsemiconductor
p2925
sS'international marketing'
p2926
Vglobal marketing
p2927
sS'vb'
p2928
Vvisual basic
p2929
sS'vim'
p2930
Vvim (text editor)
p2931
sS'policy making'
p2932
Vpolicy
p2933
sS'ilustra\xc3\xa7\xc3\xa3o'
p2934
Vilustra%c3%a7%c3%a3o
p2935
sS'tems investigation'
p2936
Vdrive testing
p2937
sS'legal skills'
p2938
Vtoles
p2939
sS'marketo'
p2940
Vmarketo
p2941
sS'web analytics'
p2942
Vweb analytics
p2943
sS'game development'
p2944
Vvideo game development
p2945
sS'structured products'
p2946
Vstructured product
p2947
sS'terminologist'
p2948
Vterminology
p2949
sS'governance'
p2950
Vgovernance
p2951
sS'quantum mechanics'
p2952
Vquantum mechanics
p2953
sVit law
p2954
S''
sS'sap crm technical'
p2955
Vsap crm
p2956
sS'rhel'
p2957
Vred hat enterprise linux
p2958
sS'jive'
p2959
Vjive
p2960
sS'design and optimisation of energy systems'
p2961
Vmathematical optimization
p2962
sS'ipg carmaker'
p2963
V
sVdatamining
p2964
S'Data_mining'
p2965
sVlean ux
p2966
S'User_experience_design'
p2967
sS'operators'
p2968
Voperator
p2969
sS'sales planning'
p2970
Vsales and operations planning
p2971
sS'brainstorming'
p2972
Vbrainstorming
p2973
sS'management project'
p2974
Vproject management
p2975
sS'text processing'
p2976
Vtext processing
p2977
sS'grant writing'
p2978
Vgrant writing
p2979
sS'none'
p2980
Vnone
p2981
sS'genetic algorithms'
p2982
Vgenetic algorithm
p2983
sS'science'
p2984
Vscience
p2985
sS'mobile applications'
p2986
Vmobile app
p2987
sS'budgets'
p2988
Vbudget
p2989
sVinspire close personnel to share business goals
p2990
S'Aspiration_management'
p2991
sVstrategies
p2992
S'Strategy'
p2993
sS'visual basic'
p2994
Vvisual basic
p2995
sS'history'
p2996
Vhistory
p2997
sVreal world data analytics experience
p2998
S'Big_data'
p2999
sS'energy derivatives'
p3000
Venergy derivative
p3001
sS'f#'
p3002
Vf sharp (programming language)
p3003
sS'magento'
p3004
Vmagento
p3005
sS'cell culture'
p3006
Vcell culture
p3007
sS'graphic designer'
p3008
Vgraphic design
p3009
sS'oracle bi'
p3010
Voracle business intelligence suite enterprise edition
p3011
sS'comscore'
p3012
Vcomscore
p3013
sS'micro financing'
p3014
Vmicrofinance
p3015
sS'equities'
p3016
Vequity (finance)
p3017
sS'it and business skills'
p3018
Vskills for business
p3019
sS'csc'
p3020
Vcomputer sciences corporation
p3021
sS'pl/sql'
p3022
Vsql
p3023
sS'smalltalk'
p3024
Vsmalltalk
p3025
sS'r '
p3026
Vr (programming language)
p3027
sS'css'
p3028
Vcascading style sheets
p3029
sS'vietnam'
p3030
Vvietnam
p3031
sS'crowdfunding'
p3032
Vcrowdfunding
p3033
sS'knowledge management and information systems'
p3034
Vknowledge management
p3035
sS'escultura'
p3036
Vescultura
p3037
sS'service design'
p3038
Vservice design
p3039
sS'bioinformatics'
p3040
Vbioinformatics
p3041
sS'cost reduction'
p3042
Vcost reduction
p3043
sVacquisitions
p3044
S'Acquisition'
p3045
sS'negotiation skills'
p3046
Vwikipedia:negotiation
p3047
sS'research and analysis'
p3048
Vresearch and analysis wing
p3049
sS'maintenance management'
p3050
Vmaintenance management professional
p3051
sS'markov models'
p3052
Vmarkov model
p3053
sS'machine learning (coursera - machine learning)'
p3054
Vml
p3055
sS'documentation'
p3056
Vdocumentation
p3057
sS'django'
p3058
Vdjango
p3059
sS'mozilla firefox and google chrome extensions'
p3060
Vgoogle chrome
p3061
sS'government liaison'
p3062
Vliaison
p3063
sS'fundamental'
p3064
Vfundamental
p3065
sS'servlets'
p3066
Vjava servlet
p3067
sS'photoshop'
p3068
Vadobe photoshop
p3069
sS'corporate identity'
p3070
Vcorporate identity
p3071
sS'xmpp'
p3072
Vxmpp
p3073
sS'it operations'
p3074
Vinformation technology operations
p3075
sS'strategic partnerships'
p3076
Vstrategic partnership
p3077
sS'radar'
p3078
Vradar
p3079
sVcomputational finance
p3080
S'Computational_finance'
p3081
sS'multilungual ( i learn too fast a new language) and engineering skils'
p3082
Vlist of multilingual presidents of the united states
p3083
sS'evolutionary biology'
p3084
Vevolutionary biology
p3085
sS'ultrafast spectroscopy'
p3086
Vultrafast laser spectroscopy
p3087
sS'3d modelling'
p3088
V3d modeling
p3089
sS'foswiki'
p3090
Vfoswiki
p3091
sS'pcr'
p3092
Vpolymerase chain reaction
p3093
sS'critical care'
p3094
Vcritical care
p3095
sS'selenium'
p3096
Vselenium
p3097
sS'monte carlo simulation'
p3098
Vmonte carlo method
p3099
sS'supply chain management'
p3100
Vsupply chain management
p3101
sS'reuters'
p3102
Vreuters
p3103
sS'solutions design'
p3104
Vsolutions architect
p3105
sS'octave/matlab '
p3106
Vgnu octave
p3107
sS'strategic development & planning'
p3108
Vstrategic development planning authority
p3109
sS'brand management'
p3110
Vbrand management
p3111
sS'mapinfo'
p3112
Vmapinfo
p3113
sS'index calculation'
p3114
Vprice index
p3115
sS'vlsi design'
p3116
Vvery-large-scale integration
p3117
sS'gaelic football'
p3118
Vgaelic football
p3119
sS'scipy'
p3120
Vscipy
p3121
sS'operation management'
p3122
Voperations management
p3123
sS'strategic alliance management'
p3124
Vstrategic alliance
p3125
sS'business development'
p3126
Vbusiness development
p3127
sS'tender submissions'
p3128
Vtender
p3129
sS'vendor managed inventory'
p3130
Vvendor-managed inventory
p3131
sS'personal assistant'
p3132
Vpersonal assistant
p3133
sS'communication skills'
p3134
Vcommunication
p3135
sS'backtesting'
p3136
Vbacktesting
p3137
sS'2g'
p3138
[...]
p4872
Vprotein expression (biotechnology)
p4873
sS'surface water hydrology'
p4874
Vsurface-water hydrology
p4875
sS'metatrader'
p4876
Vmetatrader 4
p4877
sS'strategy & operations'
p4878
Voperations management
p4879
sS'databases'
p4880
Vdatabase
p4881
sS'investment management'
p4882
Vinvestment management
p4883
sVgraphx
p4884
S'TurboGrafx-16'
p4885
sS'pre-sales'
p4886
Vpresales
p4887
sS'sports medicine'
p4888
Vsports medicine
p4889
sS'early stage entrepreneurship'
p4890
Ventrepreneurship
p4891
sS'top secret'
p4892
Vtop secret!
p4893
sS'dojo'
p4894
Vdojo toolkit
p4895
sVpersuasion skills
p4896
S'Persuasion'
p4897
sS'planning'
p4898
Vplanning
p4899
sVsolve business problems
p4900
S'Problem_solving'
p4901
sS'it management'
p4902
Vinformation technology management
p4903
sVimproved data analysis
p4904
S'JMP_(statistical_software)'
p4905
sS'process consulting'
p4906
Vprocess consultant
p4907
sVknowledge
p4908
S'Knowledge'
p4909
sS'business research'
p4910
Vbusiness research
p4911
sS'valuation'
p4912
Vvaluation
p4913
sS'hablo ingl\xc3\xa9s y me gusta hacer an\xc3\xa1lisis'
p4914
V
sS'tts'
p4915
Vtts
p4916
sS'general management'
p4917
Vgeneral manager
p4918
sS'project estimation'
p4919
Vestimation (project management)
p4920
sS'team management skills'
p4921
Vteam management
p4922
sS'analytical and organizational skills'
p4923
Vanalytical skill
p4924
sS'bonds'
p4925
Vbond (finance)
p4926
sS'photography'
p4927
Vphotography
p4928
sS'r&d'
p4929
Vresearch and development
p4930
sVwindows internals
p4931
S'Mark_Russinovich'
p4932
sVproposal writing project management
p4933
S'Proposal_(business)'
p4934
sS'maritime'
p4935
Vmaritime
p4936
sS'political consulting'
p4937
Vpolitical consulting
p4938
sVcommercial acumen
p4939
S'Business_acumen'
p4940
sS'category management'
p4941
Vcategory management
p4942
sS'key client relationships'
p4943
Vnurse%e2%80%93client relationship
p4944
sS'tactics'
p4945
Vtactic
p4946
sS'db2'
p4947
Vibm db2
p4948
sS'generalist'
p4949
Vgeneralist
p4950
sS'leadership\tinspire close personnel to share business goals and enthusiasm'
p4951
V
sS'qt'
p4952
Vqt (software)
p4953
sVtobacco
p4954
S'Tobacco'
p4955
sS'service management as a practice'
p4956
Vit service management
p4957
sVentreprenuership
p4958
S'Entrepreneurship'
p4959
sS'map reduce'
p4960
Vmapreduce
p4961
sS'credit analysis'
p4962
Vcredit analysis
p4963
sS'local government'
p4964
Vlocal government
p4965
sS'red hat enterprise linux'
p4966
Vred hat enterprise linux
p4967
sS'cognos'
p4968
Vcognos
p4969
sS'software testing life cycle'
p4970
Vsoftware testing life cycle
p4971
sS'ftir'
p4972
Vfourier transform infrared spectroscopy
p4973
sS'climate change'
p4974
Vclimate change
p4975
sVinformation architecture
p4976
S'Information_architecture'
p4977
sS'presentation skills'
p4978
Vpresentation
p4979
sS'system administration'
p4980
Vsystem administrator
p4981
sS'integrated marketing'
p4982
Vintegrated marketing communications
p4983
sVgoogle dataflow
p4984
S'MapReduce'
p4985
sS'demand generation'
p4986
Vdemand generation
p4987
sS'handling and analysing big data'
p4988
Vbig data
p4989
sVstats
p4990
S'Wikipedia:Statistics'
p4991
sVbehavioral economics research
p4992
S'Behavioral_economics'
p4993
sS'value chain analysis'
p4994
Vvalue chain
p4995
sVcontent analysis
p4996
S'Content_analysis'
p4997
sS'information management'
p4998
Vinformation management
p4999
sS'dll'
p5000
Vdynamic-link library
p5001
sVwritten
p5002
S'Writing'
p5003
sS'verilog'
p5004
Vverilog
p5005
sS'stata'
p5006
Vstata
p5007
sS'defect life cycle'
p5008
V
sS'flickr'
p5009
Vflickr
p5010
sS'bls'
p5011
Vbasic life support
p5012
sS'sales strategy'
p5013
Vsales
p5014
sS'petroleum engineer'
p5015
Vpetroleum engineering
p5016
sS'tso'
p5017
Vtso
p5018
sS'database design'
p5019
Vdatabase design
p5020
sS'compressed air project evaluation:  payback analysis regarding the benefits of improving processes.'
p5021
Veval cactp cd.pdf
p5022
sS'photovoltaics'
p5023
Vphotovoltaics
p5024
sS'test strategy'
p5025
Vtest strategy
p5026
sS'pdca'
p5027
Vpdca
p5028
sS'e-learning'
p5029
Ve-learning
p5030
sVsap r
p5031
S'3'
sS'ability to streamline administrative processes'
p5032
Velectronic prescribing
p5033
sS'pragmatics'
p5034
Vpragmatics
p5035
sVdata analysis at scale
p5036
S'Scale_analysis_(statistics)'
p5037
sS'defense'
p5038
Vdefense
p5039
sS'technical sales \teconomic analysis'
p5040
Veconomic impact analysis
p5041
sS'coldfusion'
p5042
Vadobe coldfusion
p5043
sS'content development'
p5044
Vcontent development (web)
p5045
sS'budgeting'
p5046
Vbudget
p5047
sS'presentations'
p5048
Vpresentation
p5049
sS'key factor for closing projects in mayor steel company'
p5050
Vlackawanna steel company
p5051
sS'lien waivers'
p5052
Vlien waiver
p5053
sVetc
p5054
S'ETC'
p5055
sS'operations research'
p5056
Voperations research
p5057
sS'finance consulting'
p5058
Vfinancial adviser
p5059
sS'core java'
p5060
Vjava (software platform)
p5061
sVfixed income trading
p5062
S'Fixed_income'
p5063
sS'instructor and teacher'
p5064
Vteaching fellow
p5065
sS'mechanics'
p5066
Vmechanics
p5067
sVpredictive analysis
p5068
S'Predictive_analytics'
p5069
sS'public speaking'
p5070
Vpublic speaking
p5071
sS'data science'
p5072
Vdata science
p5073
sS'conducting training needs assessment'
p5074
Vtraining needs analysis
p5075
sS'packaging'
p5076
Vpackaging and labeling
p5077
sS'thought leadership'
p5078
Vthought leader
p5079
sS'co-pa'
p5080
Vcopa
p5081
sS'modeling'
p5082
Vmodel (people)
p5083
sS'internal communications'
p5084
Vinternal communications
p5085
sS'rdbms'
p5086
Vrelational database management system
p5087
sS'mechanical engineering'
p5088
Vmechanical engineering
p5089
sVwork in multi-cultural
p5090
S'Multicultural_education'
p5091
sS'technical draftsman'
p5092
Vdrafter
p5093
sS'ansys-cfx'
p5094
Vansys cfx
p5095
sS'jit'
p5096
Vjust in time (business)
p5097
sS'asp.net mvc'
p5098
Vasp.net mvc framework
p5099
sS'experience with machine learning algorithms'
p5100
Vmachine learning
p5101
sS'json'
p5102
Vjson
p5103
sS'teamwork'
p5104
Vteamwork
p5105
sS'supervisory skills'
p5106
Vsupervisor
p5107
sS'multivariate analysis'
p5108
Vmultivariate analysis
p5109
sS'statistical learning'
p5110
Vstatistical learning theory
p5111
sVportfolio management 
p5112
S'Portfolio_management'
p5113
sS'functional specifications'
p5114
Vfunctional specification
p5115
sS'sqoop'
p5116
Vsqoop
p5117
sS'marketing communications'
p5118
Vmarketing communications
p5119
sS'c#'
p5120
Vc sharp (programming language)
p5121
sVevaluating a strategy
p5122
S'Evaluation_strategy'
p5123
sS'j2ee'
p5124
Vjava platform, enterprise edition
p5125
sS'e-business consulting'
p5126
Velectronic business
p5127
sS'streamlining operations'
p5128
Voperation-streamline-protest-tucson-arizona-texas n 2724637.html
p5129
sS'software quality assurance'
p5130
Vsoftware quality assurance
p5131
sS'laser'
p5132
Vlaser
p5133
sS'microsoft office sharepoint server'
p5134
Vsharepoint
p5135
sS'managed services'
p5136
Vmanaged services
p5137
sS'small business developent'
p5138
Vsmall business administration
p5139
sS'nursing management'
p5140
Vnursing management
p5141
sS'automated securities trading'
p5142
Valgorithmic trading
p5143
sS'x86 assembly'
p5144
Vx86 assembly language
p5145
sS'crystal reports'
p5146
Vcrystal reports
p5147
sS'cvd'
p5148
Vchemical vapor deposition
p5149
sVonline education design
p5150
S'Instructional_design'
p5151
sS'requirejs'
p5152
Vhistory.html
p5153
sS'scientific programming'
p5154
Vcomputational science
p5155
sS'neuroeconomics'
p5156
Vneuroeconomics
p5157
sS'project planning'
p5158
Vproject planning
p5159
sS'lean manufacturing'
p5160
Vlean manufacturing
p5161
sS'avr'
p5162
Vatmel avr
p5163
sS'hardware'
p5164
Vhardware
p5165
sS'lean initiatives'
p5166
Vlean manufacturing
p5167
sS'hp ppm'
p5168
Vhp software division
p5169
sS'statistical analysis'
p5170
Vstatistics
p5171
sS'hotel management'
p5172
Vhotel manager
p5173
sS'nanofabrication'
p5174
Vnanolithography
p5175
sS'metrology'
p5176
Vmetrology
p5177
sS'powerpoint & excel'
p5178
Vlist of microsoft office filename extensions
p5179
sS'digital signal processing'
p5180
Vdigital signal processing
p5181
sS'gprof'
p5182
Vgprof
p5183
sS'administration'
p5184
Vadministration
p5185
sS'sendmail'
p5186
Vsendmail
p5187
sS'access'
p5188
Vmicrosoft access
p5189
sS'python'
p5190
Vpython (programming language)
p5191
sS'retailing'
p5192
Vretail
p5193
sS'construction management'
p5194
Vconstruction management
p5195
sS'start-up consulting'
p5196
Vstartup company
p5197
sS'wells design'
p5198
Vjonathan wells (intelligent design advocate)
p5199
sS'android'
p5200
Vandroid (operating system)
p5201
sS'web development'
p5202
Vweb development
p5203
sS'simulation'
p5204
Vsimulation
p5205
sS'human computer interaction'
p5206
Vhuman%e2%80%93computer interaction
p5207
sS'http'
p5208
V
sS'six sigma'
p5209
Vsix sigma
p5210
sS'premiere'
p5211
Vpremiere
p5212
sS'quality management'
p5213
Vquality management
p5214
sS'ability to learn'
p5215
Vlearning
p5216
sS'ios'
p5217
Vios
p5218
sS'topic modelling'
p5219
Vtopic model
p5220
sS'automation'
p5221
Vautomation
p5222
sS'self published author on kindle'
p5223
Vjohn locke (author)
p5224
sS'information architecture and information design'
p5225
Vinformation architecture
p5226
sS'sun certified java programmer'
p5227
Voracle certification program
p5228
sS'architectures'
p5229
Varchitecture
p5230
sS'service delivery'
p5231
Vservice delivery framework
p5232
sVjudgment
p5233
S'Judgement'
p5234
sS'statistical programming'
p5235
Vcategory:statistical programming languages
p5236
sS'identity'
p5237
Videntity (film)
p5238
sS'biz process'
p5239
Vbusiness process
p5240
sS'phython'
p5241
Vpython (programming language)
p5242
sS'database administrator'
p5243
Vdatabase administrator
p5244
sS'international business development'
p5245
Vinternational business development
p5246
sS'mechanical inspection'
p5247
Vinspection
p5248
sVi
S'I'
sS'indonesia'
p5249
Vindonesia
p5250
sVdigital marketing consultant
p5251
S'Digital_marketing'
p5252
sS'data center'
p5253
Vdata center
p5254
sS'procurement'
p5255
Vprocurement
p5256
sS'computer programming'
p5257
Vcomputer programming
p5258
sS'motiva\xc3\xa7\xc3\xa3o e etc.'
p5259
Vcategoria:motiva%c3%a7%c3%a3o
p5260
sS'business process design'
p5261
Vbusiness process
p5262
sS'english'
p5263
Venglish wikipedia
p5264
sS'video editing'
p5265
Vvideo editing
p5266
sS'power generation'
p5267
Velectricity generation
p5268
sVdata scientist
p5269
S'Data_science'
p5270
sVinnovation  ise
p5271
S'Fraunhofer_Institute_for_Solar_Energy_Systems_ISE'
p5272
sS'autism spectrum disorders'
p5273
Vautism spectrum
p5274
sS'tendering'
p5275
Vtender
p5276
sVbusiness plans development
p5277
S'Business_plan'
p5278
sS'abap'
p5279
Vabap
p5280
sVmarkdown
p5281
S'Markdown'
p5282
sS'passionate about retail and shopper marketing'
p5283
Vshoppermarketingagencies guide.pdf
p5284
sS'real property'
p5285
Vreal property
p5286
sVa glass company
p5287
S'Asahi_Glass_Co.'
p5288
sS'field service\t\tvisits to clients sites for trouble shooting and startup commissioning'
p5289
Vcustomer-service-brochure-0713.pdf
p5290
sS'web'
p5291
Vweb
p5292
sS'adt'
p5293
Vthe adt corporation
p5294
sS'time series analysis'
p5295
Vtime series
p5296
sS'socket programming'
p5297
Vcomputer network programming
p5298
sS'business ownership'
p5299
Vbusiness
p5300
sS'team management'
p5301
Vteam management
p5302
sS'network administration'
p5303
Vnetwork administrator
p5304
sS'nanoparticles'
p5305
Vnanoparticle
p5306
sS'infographics'
p5307
Vinfographic
p5308
sS'css3'
p5309
Vcascading style sheets
p5310
sS'object oriented software'
p5311
Vobject-oriented software engineering
p5312
sS'plsql'
p5313
Vsql
p5314
sVux design
p5315
S'User_experience_design'
p5316
sS'government'
p5317
Vgovernment
p5318
sS'behavior based safety (bbs)'
p5319
Vbehavior-based safety
p5320
sS'python '
p5321
Vpython (programming language)
p5322
sS'reinforcement learning'
p5323
Vreinforcement learning
p5324
sS'user-centered design'
p5325
Vuser-centered design
p5326
sS'gnu octave'
p5327
Vgnu octave
p5328
sS'nanotechnology'
p5329
Vnanotechnology
p5330
sS'energy policy'
p5331
Venergy policy
p5332
sS'european law'
p5333
Veuropean union law
p5334
sVcoding of sofware system
p5335
S'Computer_programming'
p5336
sS'google webmaster tools'
p5337
Vgoogle webmaster tools
p5338
sS'naval architecture'
p5339
Vnaval architecture
p5340
sS'journalism'
p5341
Vjournalism
p5342
sS'recruiting & assessment'
p5343
Vassessment-centre
p5344
sS'xquery'
p5345
Vxquery
p5346
sS'modelling and simulation'
p5347
Vmodeling and simulation
p5348
sVtechnology 
p5349
S'Technology'
p5350
sS'project finance'
p5351
Vproject finance
p5352
sS'italian'
p5353
Vitalian wikipedia
p5354
sS'market analysis'
p5355
Vmarket analysis
p5356
sS'perl script'
p5357
Vperl
p5358
sS'kde'
p5359
Vkde
p5360
sS'twitter'
p5361
Vtwitter
p5362
sS'regression testing'
p5363
Vregression testing
p5364
sS'social media outreach'
p5365
V3-tools-to-help-you-with-social-media-outreach-0126190
p5366
sS'biological systems'
p5367
Vbiological system
p5368
sS'export'
p5369
Vexport
p5370
sS'elder care'
p5371
Velderly care
p5372
sVsome r proficiency
p5373
S'Defense_Language_Proficiency_Tests'
p5374
sS'large scale computing'
p5375
Vlarge-scale complex it systems
p5376
sS'project administration'
p5377
Vwikipedia:administration
p5378
sS'public policy'
p5379
Vpublic policy
p5380
sS'linux desktop'
p5381
Vlinux
p5382
sVexcellent communication
p5383
S'Information_and_communication_technologies_for_development'
p5384
sV1st level troubleshooting (xp
p5385
S'Paranoia_(role-playing_game)'
p5386
sS'industrial engineering'
p5387
Vindustrial engineering
p5388
sS'lead generation'
p5389
Vlead generation
p5390
sS'lean'
p5391
Vlean
p5392
sS'sdsf'
p5393
Vsdsf
p5394
sS'troubleshooting: hardware and software'
p5395
Vtroubleshooting
p5396
sS'mathematical statistics'
p5397
Vmathematical statistics
p5398
sVpassion
p5399
S'Passion_(2012_film)'
p5400
sS'esb'
p5401
Venterprise service bus
p5402
sS'information security'
p5403
Vinformation security
p5404
sS'optical microscopy'
p5405
Voptical microscope
p5406
sS'biology'
p5407
Vbiology
p5408
sS'data analysis'
p5409
Vdata analysis
p5410
sS'licensing'
p5411
Vlicense
p5412
sS'dcf'
p5413
Vdiscounted cash flow
p5414
sS'team leadership'
p5415
Vteam leader
p5416
sS'risk based testing'
p5417
Vrisk-based testing
p5418
sVself-organization
p5419
S'Self-organization'
p5420
sS'maven'
p5421
Vapache maven
p5422
sS'epidemiology'
p5423
Vepidemiology
p5424
sS'exhibit preparation'
p5425
Vart exhibition
p5426
sS'critical thinking'
p5427
Vcritical thinking
p5428
sS'loans'
p5429
Vloan
p5430
sS'circuit design'
p5431
Vcircuit design
p5432
sS'national security'
p5433
Vnational security
p5434
sS'marketing analytics'
p5435
Vcategory:marketing analytics
p5436
sS'kernel programming'
p5437
Vcategory:kernel programmers
p5438
sS'desktop application support'
p5439
Vtechnical support
p5440
sS'arcgis'
p5441
Varcgis
p5442
sS'community outreach'
p5443
Voutreach
p5444
sS'tomcat'
p5445
Vapache tomcat
p5446
sS'cost management.'
p5447
Vproject cost management
p5448
sVclojure
p5449
S'Clojure'
p5450
sS'powerpoint'
p5451
Vmicrosoft powerpoint
p5452
sVsoftware
p5453
S'Software'
p5454
sS'end-to-end testing'
p5455
Vend-to-end-test
p5456
sS'emotional intelligence'
p5457
Vemotional intelligence
p5458
sVoptimisation of energy systems
p5459
S'Voltage_optimisation'
p5460
sVmore python
p5461
S'Python_(programming_language)'
p5462
sS'ultrasound'
p5463
Vultrasound
p5464
sS'manufacturing operations management'
p5465
Vmanufacturing operations management
p5466
sVmore leadership
p5467
S'Leadership'
p5468
sS'problem solving'
p5469
Vproblem solving
p5470
sS'ninjatrader'
p5471
Vtechnical analysis software
p5472
sS'zoology'
p5473
Vzoology
p5474
sS'infographics and visualisations'
p5475
Vinfographic
p5476
sS'microsoft excel'
p5477
Vmicrosoft excel
p5478
sS'quantitative analysis'
p5479
Vquantitative analysis
p5480
sS'load balancing'
p5481
Vload balancing (computing)
p5482
sS'macroeconomics'
p5483
Vmacroeconomics
p5484
sS'delivery excellence'
p5485
Voperational excellence
p5486
sS'networking'
p5487
Vcomputer network
p5488
sS'commodity markets'
p5489
Vcommodity market
p5490
sS'snmp'
p5491
Vsimple network management protocol
p5492
sS'rf engineering'
p5493
Vradio frequency engineering
p5494
sS'continuous improvement'
p5495
Vcontinual improvement process
p5496
sS'profitability analysis'
p5497
Vprofitability analysis (sap)
p5498
sS'community development'
p5499
Vcommunity development
p5500
sS'unified communications'
p5501
Vunified communications
p5502
sS'vas'
p5503
Vvalue-added service
p5504
sS'msc.adams'
p5505
Vmsc adams
p5506
sS'artificial intelligence'
p5507
Vartificial intelligence
p5508
sS'interferometry'
p5509
Vinterferometry
p5510
sS'systems engineering'
p5511
Vsystems engineering
p5512
sVise in above mentioned skills
p5513
S'Trinity_College_London_ESOL'
p5514
sS'business process improvement'
p5515
Vbusiness process improvement
p5516
sS'hr'
p5517
V
sVreasoning
p5518
S'Reason'
p5519
sS'construction'
p5520
Vconstruction
p5521
sS'internet services'
p5522
Vinternet service provider
p5523
sS'basic biology'
p5524
Vbiology
p5525
sS'editing'
p5526
Vhelp:editing
p5527
sVobject-oriented analysis
p5528
S'Object-oriented_analysis_and_design'
p5529
sS'event management'
p5530
Vevent management
p5531
sS'itil'
p5532
Vinformation technology infrastructure library
p5533
sS'parallel programming'
p5534
Vparallel computing
p5535
sS'wcf services'
p5536
Vwindows communication foundation
p5537
sVj
S'J'
sS'internet tools'
p5538
Vinternet tools
p5539
sS'physical vapour depsition'
p5540
Vphysical vapor deposition
p5541
sS'design and coding of sofware system'
p5542
Vsoftware development
p5543
sS'graphite'
p5544
Vgraphite
p5545
sVmore experience
p5546
S'More_Experience'
p5547
sS'lvm'
p5548
Vlogical volume manager (linux)
p5549
sS'news writing'
p5550
Vcategory:newswriting
p5551
sS'vertical response'
p5552
Vverticalresponse
p5553
sS'workshop facilitation'
p5554
Vfacilitation (business)
p5555
sS'multi-objective evolutionary optimization'
p5556
Vmulti-objective optimization
p5557
sVengineering skils
p5558
S'Tournament_In_Management_and_Engineering_Skills'
p5559
sVworking with hadoop
p5560
S'Apache_Hadoop'
p5561
sS'customer satisfaction'
p5562
Vcustomer satisfaction
p5563
sS'regression analysis'
p5564
Vregression analysis
p5565
sS'filmmaking'
p5566
Vfilmmaking
p5567
sVcost benefit analysis
p5568
S'Cost%E2%80%93benefit_analysis'
p5569
sS'pig'
p5570
Vpig
p5571
sS'report writing'
p5572
Vreport
p5573
sS'help desk support'
p5574
Vhelp desk
p5575
sVoperations planning
p5576
S'Operational_planning'
p5577
sS'quartz scheduler'
p5578
Vquartz (scheduler)
p5579
sS'multivariate statistics'
p5580
Vmultivariate statistics
p5581
sS'business economics'
p5582
Vbusiness economics
p5583
sVfollow ups
p5584
S'Follow-up'
p5585
sS'javasc'
p5586
Vjavascript
p5587
sS'mathematical analysis'
p5588
Vmathematical analysis
p5589
sS'business/innovation expertise'
p5590
Vservice innovation
p5591
sS'hydrology'
p5592
Vhydrology
p5593
sS'jasper reports'
p5594
Vjasperreports
p5595
sS'disposables'
p5596
Vdisposable
p5597
sS'informatica powercenter'
p5598
Vinformatica
p5599
sS'acls'
p5600
Vadvanced cardiac life support
p5601
sS'export marketing'
p5602
Vexport
p5603
sVphp4
p5604
S'PHP'
p5605
sS'portfolio management / fixed income trading'
p5606
Vadvisors asset management
p5607
sVfollow up.
p5608
S'Follow-up'
p5609
sS'fmea'
p5610
Vfailure mode and effects analysis
p5611
sS'conceptual & pragmatic'
p5612
Vpragmatism
p5613
sS'good with numbers'
p5614
Vnumbers in chinese culture
p5615
sVthe fundamental of business skills
p5616
S'Data_architect'
p5617
sS'sales management'
p5618
Vsales management
p5619
sS'catering'
p5620
Vcatering
p5621
sS'debian'
p5622
Vdebian
p5623
sS'bcm'
p5624
Vbcm
p5625
sS'sass'
p5626
Vsass (stylesheet language)
p5627
sVwrite
p5628
S'Writing'
p5629
sS'questionnaires'
p5630
Vquestionnaire
p5631
sS'biotechnology'
p5632
Vbiotechnology
p5633
sS'it infastructure'
p5634
Vinformation technology management
p5635
s.