(dp1
S''
V
sS'failure analysis'
p2
Vfailure analysis
p3
sS'laser spectroscopy'
p4
Vultrafast laser spectroscopy
p5
sS'time studies'
p6
Vtime and motion study
p7
sS'computational biophysics'
p8
Vcomputational biology
p9
sS'dynamic'
p10
Vdynamics
p11
sS'project design'
p12
Vproduct design
p13
sS'electrophysiology'
p14
Velectrophysiology
p15
sS'ejb'
p16
Venterprise javabeans
p17
sS'system design'
p18
Vsystems design
p19
sS'puredb2xml'
p20
V
sS'cobit'
p21
Vcobit
p22
sS'content management'
p23
Vcontent management
p24
sVcomputational geometry
p25
S'Computational_geometry'
p26
sS'brainstorm facilitation'
p27
Vsix thinking hats
p28
sS'hedge funds'
p29
Vhedge fund
p30
sS'messaging systems'
p31
Venterprise messaging system
p32
sS'matlab'
p33
Vmatlab
p34
sS'motion graphic'
p35
Vmotion graphics
p36
sS'teaching'
p37
Vteacher
p38
sS'positive attitude'
p39
Vpositive attitude
p40
sS'python (basics)'
p41
Vprogrammers
p42
sS'dutch'
p43
Vdutch
p44
sS'etl tools'
p45
Vcategory:etl tools
p46
sS'sellers'
p47
Vpeter sellers
p48
sS'replication'
p49
Vreplication
p50
sS'wimax'
p51
Vwimax
p52
sS'embedded c'
p53
Vembedded c
p54
sS'itil certified'
p55
Vinformation technology infrastructure library
p56
sS'voip'
p57
Vvoice over ip
p58
sS'branding & identity'
p59
Vbrand
p60
sS'cross-functional team leadership'
p61
Vcross-functional team
p62
sVbusiness innovation skills
p63
S'Department_for_Business,_Innovation_and_Skills'
p64
sS'risk assessment'
p65
Vrisk assessment
p66
sS'team spirit'
p67
Vteam spirit
p68
sS'ovation'
p69
Vovation guitar company
p70
sS'iron ore'
p71
Viron ore
p72
sVrabbitmq
p73
S'RabbitMQ'
p74
sS'engineering management'
p75
Vengineering management
p76
sS'policy administration'
p77
Vpublic administration
p78
sS'multi-cultural team leadership'
p79
Vmulticultural and diversity management
p80
sS'cms'
p81
Vcontent management system
p82
sS'ls-dyna'
p83
Vls-dyna
p84
sS'data journalism'
p85
Vdata journalism
p86
sS'numerical analysis'
p87
Vnumerical analysis
p88
sVpragmatic
p89
S'Pragmatism'
p90
sS'netbeans'
p91
Vnetbeans
p92
sS'time arrangement'
p93
Varrangement
p94
sS'actuarial science'
p95
Vactuarial science
p96
sS'asp.net ajax'
p97
Vasp.net ajax
p98
sS'wire framing'
p99
Vwebsite wireframe
p100
sS'process improvement'
p101
Vbusiness process improvement
p102
sS'virtualization'
p103
Vvirtualization
p104
sS'cost analysis'
p105
Vcost%e2%80%93benefit analysis
p106
sS'panda'
p107
Vgiant panda
p108
sS'p&l 5b'
p109
Vincome statement
p110
sS'idms'
p111
Vidms
p112
sS'cooking'
p113
Vcooking
p114
sS'youth leadership'
p115
Vyouth leadership
p116
sS'analyze balance.'
p117
Vflux balance analysis
p118
sS'time management'
p119
Vtime management
p120
sS'alternative energy'
p121
Valternative energy
p122
sS'optimization'
p123
Vmathematical optimization
p124
sS'human resource development'
p125
Vtraining and development
p126
sS'service operations management'
p127
Vmanufacturing %26 service operations management
p128
sS'technical support'
p129
Vtechnical support
p130
sS'test execution'
p131
Vtest execution engine
p132
sS'software development life cycle'
p133
Vsoftware development process
p134
sS'chinese culture'
p135
Vchinese culture
p136
sS'database design : oracle'
p137
Voracle designer
p138
sS'sql expert'
p139
Vcategory:user sql-4
p140
sS'openfoam'
p141
Vopenfoam
p142
sS'agile project management'
p143
Vagile management
p144
sVunderstand  of business management
p145
S'Business_service_management'
p146
sS'chassis'
p147
Vchassis
p148
sS'salesforce.com'
p149
Vsalesforce.com
p150
sS'accounts receivable'
p151
Vaccounts receivable
p152
sS'statistical modeling'
p153
Vstatistical model
p154
sS'cad/cam'
p155
Vcomputer-aided technologies
p156
sS'probabilistic graphical models'
p157
Vgraphical model
p158
sVproperty
p159
S'Property'
p160
sS'east asia'
p161
Veast asia
p162
sS'economics'
p163
Veconomics
p164
sS'nextgen'
p165
Vnextgen
p166
sVpharmaceutical simulations
p167
S'Simulations_Plus'
p168
sS'relationship building'
p169
Vrelationship marketing
p170
sS'enterprise content management'
p171
Venterprise content management
p172
sVfascinated by challenges
p173
S'Water_management_in_Greater_Mexico_City'
p174
sS'database management system'
p175
Vcategory:database management systems
p176
sS'military'
p177
Vmilitary
p178
sS'prolog'
p179
Vprolog
p180
sS'human rights'
p181
Vhuman rights
p182
sS'hspa'
p183
Vhspa
p184
sS'classification'
p185
Vclassification
p186
sS'population genetics'
p187
Vpopulation genetics
p188
sVtelecommunication engineering
p189
S'Telecommunications_engineering'
p190
sS'patience'
p191
Vpatience
p192
sS'unix'
p193
Vunix
p194
sS'service desk'
p195
Vservice desk (itsm)
p196
sS'basic finance'
p197
Vcategory:basic financial concepts
p198
sS'financial due diligence'
p199
Vdue diligence
p200
sS'auditing'
p201
Vaudit
p202
sS'entity life cycles'
p203
Viso 29110
p204
sS'experimentation'
p205
Vexperiment
p206
sS'genomics'
p207
Vgenomics
p208
sS'power electronics'
p209
Vpower electronics
p210
sS'open source'
p211
Vopen source
p212
sS'humanitarian assistance'
p213
Vhumanitarian aid
p214
sS'it project lifecycle'
p215
Vsystems development life cycle
p216
sS'design specifications'
p217
Vdesign specification
p218
sS'risk management'
p219
Vrisk management
p220
sS'image editing'
p221
Vimage editing
p222
sS'music'
p223
Vmusic
p224
sS'dns'
p225
Vdomain name system
p226
sS'health economics/finance'
p227
Vhealth economics
p228
sVassessment
p229
S'Assessment'
p230
sS'entrepreneurship management'
p231
Ventrepreneurship
p232
sS'blackberry enterprise server'
p233
Vblackberry enterprise server
p234
sS'corporate website management'
p235
Vwebsite management outsourcing
p236
sS'web design'
p237
Vweb design
p238
sS'cardiology'
p239
Vcardiology
p240
sS'jmp'
p241
Vjmp (statistical software)
p242
sS'drug design'
p243
Vdrug design
p244
sS'quantum computing'
p245
Vquantum computer
p246
sS'computational linguistics'
p247
Vcomputational linguistics
p248
sS'energy efficiency'
p249
Vefficient energy use
p250
sS'lungo'
p251
Vlungo
p252
sS'vpn'
p253
Vvirtual private network
p254
sS'accounting.'
p255
Vaccounting
p256
sS'erp'
p257
Venterprise resource planning
p258
sVculinary chef
p259
S'Cooking_school'
p260
sVc learning
p261
S'C_(programming_language)'
p262
sS'intellectual property and patent  expert'
p263
Vintellectual property enterprise court
p264
sS'public management'
p265
Vpublic management
p266
sS'eclipse'
p267
Veclipse (software)
p268
sS'basic data analysis'
p269
Vdata analysis
p270
sVansys-fluent
p271
S'Ansys'
p272
sS'scripting'
p273
Vscripting language
p274
sS'engagement management'
p275
V
sS'programming'
p276
Vcomputer programming
p277
sS'in'
p278
V.in
p279
sS'portfolio management'
p280
Vportfolio management
p281
sS'python programming'
p282
Vpython (programming language)
p283
sS'civic innovation'
p284
Voffice of social innovation and civic participation
p285
sS'business objects'
p286
Vbusiness objects
p287
sS'revenue analysis'
p288
Vrevenue
p289
sS'educational technology'
p290
Veducational technology
p291
sS'p&l analysis'
p292
Vpnl explained
p293
sS'portfolio optimization'
p294
Vportfolio optimization
p295
sS'electronic design (5+ years experience)'
p296
Velectronic document professional
p297
sS'contract negotiation'
p298
Vcontract management
p299
sS'sharepoint'
p300
Vsharepoint
p301
sS'entity framework'
p302
Ventity framework
p303
sS'globalization'
p304
Vglobalization
p305
sS'special operations'
p306
Vspecial operations
p307
sS'business planning'
p308
Vbusiness plan
p309
sS'business alliances'
p310
Vbusiness alliance
p311
sS'actionscript'
p312
Vactionscript
p313
sS'filenet'
p314
Vfilenet
p315
sS'rhadoop'
p316
Vrevolution analytics
p317
sS'strategy execution'
p318
Vstrategy execution
p319
sS'information technology management'
p320
Vinformation technology management
p321
sS'manuals'
p322
Vmanual
p323
sS'oracle e-business suite'
p324
Voracle applications
p325
sS'liasing'
p326
Vliaise
p327
sS'law'
p328
Vlaw
p329
sVbusiness plans presentations
p330
S'Business_plan'
p331
sS'fluid mechanics'
p332
Vfluid mechanics
p333
sS'mainframe architecture'
p334
Vibm mainframe
p335
sS'sparql'
p336
Vsparql
p337
sS'hadoop '
p338
Vapache hadoop
p339
sS'bootstrap'
p340
Vbootstrap (front-end framework)
p341
sS'strategic partnership development'
p342
Vstrategic partnership
p343
sVimprove the english
p344
S'Speak_Good_English_Movement'
p345
sS'e-commerce'
p346
Ve-commerce
p347
sS'algorithms'
p348
Valgorithm
p349
sS'life insurance'
p350
Vlife insurance
p351
sS'black box testing'
p352
Vblack-box testing
p353
sS'wind'
p354
Vwind
p355
sS'operations'
p356
Voperation
p357
sS'network security'
p358
Vnetwork security
p359
sS'itil v3 foundations certified'
p360
Vinformation technology infrastructure library
p361
sVintellectual property
p362
S'Intellectual_property'
p363
sVdiseñar estrategias para posicionar productos o servicios en los mercados
p364
S''
sS'hadoop'
p365
Vapache hadoop
p366
sS'r fundamentals'
p367
Vr-fundamentals.pdf
p368
sS'information search'
p369
Vinformation search process
p370
sS'jobs to be done'
p371
Voutcome-driven innovation
p372
sS'localization testing'
p373
Vinternationalization and localization
p374
sS'rnaseq'
p375
Vrna-seq
p376
sS'capital markets'
p377
Vcapital market
p378
sS'filing of records'
p379
Vrecord-oriented filesystem
p380
sS'r programming'
p381
Vr (programming language)
p382
sS'writing'
p383
Vwriting
p384
sS'non-profit volunteer'
p385
Vvolunteering
p386
sS'product cost analysis'
p387
Vfunction cost analysis
p388
sS'carbon management'
p389
Vcarbon process management
p390
sS'autocad mechanical'
p391
Vautocad
p392
sS'erlang'
p393
Verlang (programming language)
p394
sS'ccna'
p395
Vccna
p396
sS'dmaic'
p397
Vdmaic
p398
sS'survey design'
p399
Vsurvey
p400
sS'mathemathical decision making modeling'
p401
Vdecision theory
p402
sS'technical documentation'
p403
Vtechnical documentation
p404
sS'business transformation'
p405
Vbusiness transformation
p406
sS'enterprise systems architecture'
p407
Venterprise systems engineering
p408
sS'tourism'
p409
Vtourism
p410
sS'bank'
p411
Vbank
p412
sS'predictive modelling'
p413
Vpredictive modelling
p414
sS'edge'
p415
Venhanced data rates for gsm evolution
p416
sS'database management'
p417
Vdatabase
p418
sVodbc
p419
S'Open_Database_Connectivity'
p420
sS'vehicle dynamics'
p421
Vvehicle dynamics
p422
sS'computer aided design (cad)'
p423
Vcomputer-aided design
p424
sVgestão estratégica de negocios
p425
S''
sS'scientific data management'
p426
Vlaboratory informatics
p427
sS'requirements gathering'
p428
Vrequirements analysis
p429
sS'systems thinking'
p430
Vsystems thinking
p431
sS'end-to-end'
p432
Vend-to-end
p433
sS'axure'
p434
Vaxure rp
p435
sS'opinion mining'
p436
Vsentiment analysis
p437
sS'hadoop ecosystem'
p438
Vapache hadoop
p439
sS'gprs'
p440
Vgeneral packet radio service
p441
sS'graphic database'
p442
Vgraph database
p443
sS'mdm'
p444
Vmaster data management
p445
sS'linear optimization'
p446
Vlinear programming
p447
sS'full sdlc'
p448
Vsystems development life cycle
p449
sS'phase 2'
p450
Vphase 2
p451
sS'trading'
p452
Vtrade
p453
sS'restful services'
p454
Vrepresentational state transfer
p455
sVgestão de empresas ligada ramo de combustiveis
p456
g456
sS'relational databases'
p457
Vrelational database
p458
sS'particle physics'
p459
Vparticle physics
p460
sS'redis ...'
p461
Vredis
p462
sS'data modelling'
p463
Vdata modeling
p464
sS'smo'
p465
Vsocial media optimization
p466
sS'rf'
p467
Vradio frequency
p468
sS'sml'
p469
Vstandard ml
p470
sS'project delivery'
p471
Vproject delivery method
p472
sS'direct sales'
p473
Vdirect selling
p474
sS'software asset management'
p475
Vsoftware asset management
p476
sS'highly organized & strong analytical abilities'
p477
Vanalytical skill
p478
sS'creole'
p479
Vcreole
p480
sS'ado.net'
p481
Vado.net
p482
sS'foundation'
p483
Vfoundation
p484
sVitil® itilf
p485
g485
sVtelecommunication
p486
S'Telecommunication'
p487
sS'monoclonal antibodies'
p488
Vmonoclonal antibody
p489
sS'microalgae biofuel production'
p490
Valgae fuel
p491
sS'ui/ux design'
p492
Vuser experience design
p493
sS'managerial'
p494
Vmanagerial economics
p495
sS'stakeholder analysis'
p496
Vstakeholder analysis
p497
sS'french and portuguese'
p498
Vportuguese in france
p499
sS'creative vision'
p500
Vzen vision w
p501
sVbig data concepts
p502
S'Big_data'
p503
sS'sensors'
p504
Vsensor
p505
sS'mvs'
p506
Vmvs
p507
sS'automated trading'
p508
Vautomated trading system
p509
sS'openssh'
p510
Vopenssh
p511
sS'creative direction'
p512
Vcreative director
p513
sS'biologics'
p514
Vbiopharmaceutical
p515
sS'project portfolio management'
p516
Vproject portfolio management
p517
sS'mvc'
p518
Vmodel%e2%80%93view%e2%80%93controller
p519
sS'iso'
p520
Vinternational organization for standardization
p521
sS'moodle web designer'
p522
V
sS'index funds'
p523
Vindex fund
p524
sS'contract management'
p525
Vcontract management
p526
sS'bloomberg'
p527
Vbloomberg
p528
sVquote preparation
p529
S'Si_vis_pacem,_para_bellum'
p530
sS'trade shows'
p531
Vtrade fair
p532
sS'proteomics'
p533
Vproteomics
p534
sS'operational planning'
p535
Voperational planning
p536
sVjdbc programming
p537
S'Java_Database_Connectivity'
p538
sS'property & casualty insurance'
p539
Vproperty insurance
p540
sS'construction safety'
p541
Vconstruction site safety
p542
sS'neo4j'
p543
Vneo4j
p544
sS'fully bilingual (native spanish - expert english level)'
p545
Vspanish language in the united states
p546
sS'process simulation'
p547
Vprocess simulation
p548
sS'microfabrication'
p549
Vmicrofabrication
p550
sS'investment banking'
p551
Vinvestment banking
p552
sS'vhdl'
p553
Vvhdl
p554
sS'design strategy'
p555
Vdesign strategy
p556
sS'all of them'
p557
Vall of them witches
p558
sS'struts'
p559
Vapache struts
p560
sS'recruiting'
p561
Vrecruitment
p562
sVinterpersonal skills
p563
S'Social_skills'
p564
sS'qualitative market research'
p565
Vqualitative marketing research
p566
sS'lifesciences'
p567
Vlife sciences
p568
sS'surgical instruments'
p569
Vsurgical instrument
p570
sS'python development'
p571
Vpython (programming language)
p572
sS'dimensional modeling'
p573
Vdimensional modeling
p574
sS'operating systems'
p575
Voperating system
p576
sS'text mining'
p577
Vtext mining
p578
sS'danish'
p579
Vdanish wikipedia
p580
sS'it strategy'
p581
Vtechnology strategy
p582
sS'innovation consulting'
p583
Vcategory:innovation consulting firms
p584
sS'resource management'
p585
Vresource management
p586
sS'strategic thinking'
p587
Vstrategic thinking
p588
sS'it service management'
p589
Vit service management
p590
sS'policy structuring and research'
p591
Vproblem structuring in decision-making processes
p592
sS'toronto'
p593
Vtoronto
p594
sS'solar energy'
p595
Vsolar energy
p596
sS'r&d engineering'
p597
Vresearch and development
p598
sS'financial analysis'
p599
Vfinancial analysis
p600
sVtarget
p601
S'Target_Corporation'
p602
sS'global business'
p603
Vglobal business network
p604
sVforensic
p605
S'Forensic_science'
p606
sVproject
p607
S'Project'
p608
sS'administra\xc3\xa7\xc3\xa3o'
p609
Vadministra%c3%a7%c3%a3o
p610
sS'cisco ios'
p611
Vcisco ios
p612
sS'export finance'
p613
Vuk export finance
p614
sS'fixed income'
p615
Vfixed income
p616
sS'bridge'
p617
Vbridge
p618
sS'itil process'
p619
Vinformation technology infrastructure library
p620
sS'photolithography'
p621
Vphotolithography
p622
sS'functional genomics'
p623
Vfunctional genomics
p624
sS'ran'
p625
Vran (film)
p626
sVstrategic development
p627
S'Strategic_planning'
p628
sS'business intelligence'
p629
Vbusiness intelligence
p630
sS'channel management'
p631
Vdistribution (business)
p632
sS'angularjs'
p633
Vangularjs
p634
sS'market basket analysis'
p635
Vaffinity analysis
p636
sS'unix shell scripting'
p637
Vshell script
p638
sS'microsoft server'
p639
Vmicrosoft servers
p640
sS'financial accounting'
p641
Vfinancial accounting
p642
sS'dbms'
p643
Vdatabase
p644
sS'control systems design'
p645
Vcontrol system
p646
sS'user experience'
p647
Vuser experience
p648
sS'usability testing'
p649
Vusability testing
p650
sS'logic programming'
p651
Vlogic programming
p652
sS'ogre3d'
p653
Vogre
p654
sS'social media marketing'
p655
Vsocial media marketing
p656
sS'project coordination'
p657
Vit project coordinator
p658
sS'chess'
p659
Vchess
p660
sS'natural language processing'
p661
Vnatural language processing
p662
sS'antitrust economics'
p663
Vunited states antitrust law
p664
sS'design for manufacturing'
p665
Vdesign for manufacturability
p666
sS'tunnels'
p667
Vtunnel
p668
sS'free thinking'
p669
Vfreethought
p670
sS'complex networks'
p671
Vcomplex network
p672
sS'bss'
p673
Vbusiness support system
p674
sS'pentaho'
p675
Vpentaho
p676
sS'sql*loader'
p677
Vsql*loader faq
p678
sS'organization'
p679
Vorganization
p680
sS'ldap administration'
p681
Vldap admin
p682
sS'promotions'
p683
Vpromotion
p684
sS'acute care'
p685
Vacute care
p686
sS'poka yoke'
p687
Vpoka-yoke
p688
sVmore statistics
p689
S'Statistics'
p690
sS'm'
Vm
sS'dod'
p691
Vunited states department of defense
p692
sVmachine learning (beginner)
p693
S'List_of_machine_learning_algorithms'
p694
sS'internal audit'
p695
Vinternal audit
p696
sS'os x'
p697
Vos x
p698
sS'windos device driver'
p699
Vwindows driver model
p700
sVenterprise
p701
S'Enterprise'
p702
sS'public financial management'
p703
Vpublic financial management
p704
sS'international project management'
p705
Vinternational project management association
p706
sS'supply chain'
p707
Vsupply chain
p708
sS'xampp'
p709
Vxampp
p710
sS'osteopath'
p711
Vosteopathy
p712
sS'strategic planning'
p713
Vstrategic planning
p714
sS'mediawiki'
p715
Vmediawiki
p716
sS'visual studio'
p717
Vmicrosoft visual studio
p718
sS'radio'
p719
Vradio
p720
sS'visualisation'
p721
Vvisualization
p722
sS'lesson planning'
p723
Vlesson plan
p724
sS'creative problem solving'
p725
Vcreative problem-solving
p726
sVworking with large datasets
p727
S'Big_data'
p728
sS'tivac)'
p729
Vtiva-c launchpad
p730
sS'hrm'
p731
Vhuman resource management
p732
sS'ldap'
p733
Vlightweight directory access protocol
p734
sS'roadmap creation'
p735
Vinternational technology roadmap for semiconductors
p736
sS'lightroom'
p737
Vadobe photoshop lightroom
p738
sS'design and coding of sofware system'
p739
Vsoftware development
p740
sS'iptables'
p741
Viptables
p742
sS'cryptography'
p743
Vcryptography
p744
sS'network programing'
p745
Vcomputer network programming
p746
sVcuriosity (willingness to challenge the status quo)
p747
S'Spiral_of_silence'
p748
sS'analysis of stock investment.'
p749
Vfundamental analysis
p750
sS'structural engineering'
p751
Vstructural engineering
p752
sS'comunication'
p753
Vcommunication
p754
sS'competitive'
p755
Vcompetition
p756
sS'dw'
p757
Vdeutsche welle
p758
sS'modern trade.'
p759
Vtrade
p760
sS'event planning'
p761
Vevent management
p762
sS'vsam'
p763
Vvirtual storage access method
p764
sVshopper marketing
p765
S'Shopper_marketing'
p766
sS'emg'
p767
Velectromyography
p768
sS'slidify'
p769
Vlayouts
p770
sS'digital strategy'
p771
Vdigital strategy
p772
sVhighly organized
p773
S'Organizing'
p774
sS'compras'
p775
Vcompra social
p776
sS'business strategy & planning skills'
p777
Vstrategic planning
p778
sS'sequence analysis'
p779
Vsequence analysis
p780
sS'architecture'
p781
Varchitecture
p782
sS'emr'
p783
Velectronic health record
p784
sS'analytical'
p785
Vanalytic
p786
sS'high availability'
p787
Vhigh availability
p788
sVmergers
p789
S'Mergers_and_acquisitions'
p790
sS'academic tutoring'
p791
Vtutor
p792
sS'active directory'
p793
Vactive directory
p794
sVbranding
p795
S'Branding'
p796
sS'testing'
p797
Vsoftware testing
p798
sVdata s
p799
S'A_Fistful_of_Datas'
p800
sS'operating room'
p801
Voperating theater
p802
sS'analytics'
p803
Vanalytics
p804
sS'ibm bi'
p805
Vibm cognos business intelligence
p806
sS'line balancing'
p807
Vline balancing
p808
sS'strategic management'
p809
Vstrategic management
p810
sS'problem-solving & decision-making'
p811
Vdecision-making
p812
sS'water quality modeling'
p813
Vwater quality modelling
p814
sS'system integration testing'
p815
Vsystem integration testing
p816
sS'teamcenter'
p817
Vteamcenter
p818
sS'software r'
p819
Vr (programming language)
p820
sVconceptual
p821
S'Conceptual'
p822
sS'xsl'
p823
Vxsl
p824
sS'requirements traceability'
p825
Vrequirements traceability
p826
sS'strong problem-solving'
p827
Vcreative problem-solving
p828
sS'business strategies'
p829
Vstrategic management
p830
sS'customer service'
p831
Vcustomer service
p832
sS'biochemical assay'
p833
Vassay
p834
sS'html5'
p835
Vhtml5
p836
sS'design of analog'
p837
Vintegrated circuit design
p838
sS'scwcd'
p839
Voracle certification program
p840
sVretail audit search
p841
S'Observational_techniques'
p842
sS'basic (r'
p843
Vbasic reproduction number
p844
sS'quantitative research'
p845
Vquantitative research
p846
sS'data sciences'
p847
Vdata science
p848
sS'security clearance'
p849
Vsecurity clearance
p850
sS'technical analysis'
p851
Vtechnical analysis
p852
sS'customer support'
p853
Vcustomer support
p854
sS'oracle crm'
p855
Voracle crm
p856
sS'xforms'
p857
Vxforms
p858
sS'data integration'
p859
Vdata integration
p860
sS'negotiation'
p861
Vnegotiation
p862
sS'shell scripting'
p863
Vshell script
p864
sVimprove the strategic analysis
p865
S'Business_analysis'
p866
sVspread sheets
p867
S'Spreadsheet'
p868
sS'job search advice'
p869
Vemployment website
p870
sS'software project management'
p871
Vsoftware project management
p872
sS'rup methodologies'
p873
Vrational unified process
p874
sS'organisational'
p875
Vorganization
p876
sS'telecommunications'
p877
Vtelecommunication
p878
sS'stakeholder management'
p879
Vstakeholder management
p880
sS'management consulting; leadership coaching'
p881
Vleadership development
p882
sS'tecnologia da informa\xc3\xa7\xc3\xa3o'
p883
Vtecnologia da informa%c3%a7%c3%a3o
p884
sS'codeigniter'
p885
Vcodeigniter
p886
sS'competitor analysis'
p887
Vcompetitor analysis
p888
sS'apache camel'
p889
Vapache camel
p890
sVdeep learning
p891
S'Deep_learning'
p892
sS'carbon footprinting'
p893
Vcarbon footprint
p894
sS'github'
p895
Vgithub
p896
sS'tax law'
p897
Vtax law
p898
sS'information technology'
p899
Vinformation technology
p900
sS'organization & time management'
p901
Vtime management
p902
sS'fashion design and culinary chef'
p903
Vgiada de laurentiis
p904
sS'numpy'
p905
Vnumpy
p906
sS'administrative support'
p907
Vcategory:office and administrative support occupations
p908
sS'analysis services'
p909
Vmicrosoft analysis services
p910
sS'international business'
p911
Vinternational business
p912
sS'exhibit design'
p913
Vexhibit design
p914
sS'decision trees'
p915
Vdecision tree
p916
sS'project management office'
p917
Vproject management office
p918
sS'excellent operational managemnt skill'
p919
Voperations management
p920
sS'aviation'
p921
Vaviation
p922
sS'aix'
p923
Vibm aix
p924
sS'lean six sigma'
p925
Vlean six sigma
p926
sS'program development'
p927
Vsoftware development
p928
sS'pilot plant'
p929
Vpilot plant
p930
sVadvanced python
p931
S'Python_(missile)'
p932
sS'javascipt'
p933
Vjavascript
p934
sS'dashboard'
p935
Vdashboard (management information systems)
p936
sS'project finance advisory'
p937
Vadviser
p938
sVdataflow analysis
p939
S'Data-flow_analysis'
p940
sS'product management'
p941
Vproduct management
p942
sS'technical sales presentations'
p943
Vsales presentation
p944
sS'advertising research'
p945
Vadvertising research
p946
sS'it outsourcing'
p947
Voutsourcing
p948
sS'elearning'
p949
Ve-learning
p950
sVnodejs
p951
S'Node.js'
p952
sS'ip'
p953
Vip
p954
sS'ir'
p955
Vir
p956
sS'it'
p957
Vit
p958
sS'e-commerce seo'
p959
Vsearch engine marketing
p960
sS'database administration'
p961
Vdatabase administrator
p962
sS'sas'
p963
Vsas (software)
p964
sS'biological physics'
p965
Vbiophysics
p966
sS'kanban'
p967
Vkanban
p968
sS'team-work skill'
p969
Vteamwork
p970
sS'ia'
p971
Via
p972
sS'international real estate'
p973
Vinternational real estate
p974
sS'pavement design'
p975
Vpavement engineering
p976
sS'customer experience management'
p977
Vcustomer experience
p978
sS'ccnp'
p979
Vcisco career certifications
p980
sS'microsoft bi suite'
p981
V
sVpatent
p982
S'Patent'
p983
sS'optical imaging'
p984
Voptical imaging
p985
sVoperations knowledge
p986
S'Operational_definition'
p987
sS'rnc'
p988
Vrnc
p989
sS'online advertising'
p990
Vonline advertising
p991
sS'design thinking'
p992
Vdesign thinking
p993
sS'mcse'
p994
Vmicrosoft certified professional
p995
sS'moose'
p996
Vmoose
p997
sS'jboss seam'
p998
Vjboss seam
p999
sS'lambdaj'
p1000
Va-practical-introduction-to-lambdaj
p1001
sVmore biz dev
p1002
S'Business_development'
p1003
sS'great motivator'
p1004
Vmotivation
p1005
sVmiscellaneous programming languages: c
p1006
S'Comparison_of_Java_and_C%2B%2B'
p1007
sS'microcontrollers (pic'
p1008
Vpic microcontroller
p1009
sS'decision-making'
p1010
Vdecision-making
p1011
sS'medical devices'
p1012
Vmedical device
p1013
sS'ireport'
p1014
Vireport
p1015
sS'waterfall'
p1016
Vwaterfall
p1017
sS'language teaching'
p1018
Vlanguage education
p1019
sVgestão empresarial
p1020
S''
sS'credit management'
p1021
Vcredit manager
p1022
sS'mobility strategy'
p1023
Vmobile data management strategy
p1024
sS'intermediate r proficiency'
p1025
Vcommon european framework of reference for languages
p1026
sS'digital image processing'
p1027
Vdigital image processing
p1028
sVliderança de equipe
p1029
g1029
sS'hospital sales'
p1030
Vchrist hospital (jersey city, new jersey)
p1031
sVimage analysis
p1032
S'Image_analysis'
p1033
sS'solar cells'
p1034
Vsolar cell
p1035
sS'maximo'
p1036
Vmaximo (mro)
p1037
sS'materials'
p1038
Vmaterial
p1039
sVnetezza
p1040
S'Netezza'
p1041
sS'reporting systems'
p1042
Vaviation safety reporting system
p1043
sS'obiee'
p1044
Voracle business intelligence suite enterprise edition
p1045
sS'people skills'
p1046
Vpeople skills
p1047
sS'investments'
p1048
Vinvestment
p1049
sS'web applications'
p1050
Vweb application
p1051
sS'solaris'
p1052
Vsolaris (operating system)
p1053
sS'biostatistics'
p1054
Vbiostatistics
p1055
sS'proprietary trading'
p1056
Vproprietary trading
p1057
sS'business consulting'
p1058
Vbusiness consultant
p1059
sS'curriculum design'
p1060
Vcurriculum
p1061
sS'trademarks'
p1062
Vtrademark
p1063
sVyes
p1064
S'Yes_(band)'
p1065
sS'distributed systems'
p1066
Vdistributed computing
p1067
sS'hospitality management'
p1068
Vhospitality management studies
p1069
sS'visualization'
p1070
Vvisualization
p1071
sS'server administration'
p1072
Vserver administrator
p1073
sS'water resources'
p1074
Vwater resources
p1075
sS'administration and maintenance of data dictionaries'
p1076
Vdata dictionary
p1077
sS'agile'
p1078
Vagile software development
p1079
sS'uv-vis'
p1080
Vultraviolet%e2%80%93visible spectroscopy
p1081
sS'5s'
p1082
V5s (methodology)
p1083
sS'mcafee epo'
p1084
Vmcafee virusscan
p1085
sS'fortran'
p1086
Vfortran
p1087
sS'gui design'
p1088
Vuser interface design
p1089
sS'oracle sql'
p1090
Voracle sql developer
p1091
sS'java programming'
p1092
Vjava (programming language)
p1093
sS'strategic communications'
p1094
Vstrategic communication
p1095
sS'corporate social responsibility'
p1096
Vcorporate social responsibility
p1097
sS'knockoutjs'
p1098
Vknockoutjs
p1099
sS'easymock'
p1100
Vmock object
p1101
sS'wcf'
p1102
Vwindows communication foundation
p1103
sS'm/c learning'
p1104
Vmachine learning
p1105
sS'algorithmics'
p1106
Valgorithmics inc.
p1107
sS'intellij idea'
p1108
Vintellij idea
p1109
sS'social networking'
p1110
Vsocial network
p1111
sS'adobe illustrator'
p1112
Vadobe illustrator
p1113
sS'graphic design'
p1114
Vgraphic design
p1115
sVscripting troubleshooting
p1116
S'Cross-site_scripting'
p1117
sS'english language: professional working proficiency.'
p1118
Vilr scale
p1119
sS'xp'
p1120
Vwindows xp
p1121
sS'software development (20+ years experience)'
p1122
Vwhen-should-you-call-yourself-a-senior-developer
p1123
sS'bpo'
p1124
Vbusiness process outsourcing
p1125
sS'communications research'
p1126
Vcommunication research (journal)
p1127
sS'online marketing'
p1128
Vonline advertising
p1129
sS'managed care'
p1130
Vmanaged care
p1131
sVpython skills
p1132
S'Core_Python_Programming'
p1133
sS'security'
p1134
Vsecurity
p1135
sS'rstudio'
p1136
Vrstudio
p1137
sS'biz dev'
p1138
Vbusiness development
p1139
sVportuguese
p1140
S''
sS'text analytics'
p1141
Vtext mining
p1142
sS'spring-framework'
p1143
Vspring framework
p1144
sS'desktop configuration'
p1145
Vfederal desktop core configuration
p1146
sS'powepivot'
p1147
Vpowerpivot
p1148
sS'value stream mapping'
p1149
Vvalue stream mapping
p1150
sS'data processing & analytics'
p1151
Vin-database processing
p1152
sS'data migration'
p1153
Vdata migration
p1154
sS'microwave'
p1155
Vmicrowave
p1156
sS'device modeling'
p1157
Vsemiconductor device modeling
p1158
sS'greedy algorithms'
p1159
Vgreedy algorithm
p1160
sS'uml'
p1161
Vunified modeling language
p1162
sS'statistical analysis using ms excel'
p1163
Vlist of statistical packages
p1164
sS'health & safety workplace'
p1165
Voccupational safety and health
p1166
sS'product development'
p1167
Vnew product development
p1168
sS'derivatives'
p1169
Vderivative (finance)
p1170
sS'marketing'
p1171
Vmarketing
p1172
sS'operating room sales'
p1173
Voperating room management
p1174
sS'restructuring'
p1175
Vrestructuring
p1176
sS'bmc remedy'
p1177
Vbmc remedy action request system
p1178
sS'conversational french'
p1179
Vcajun french
p1180
sS'plm'
p1181
Vproduct lifecycle management
p1182
sS'manufacturing'
p1183
Vmanufacturing
p1184
sS'basic artificial intelligence'
p1185
Vartificial intelligence
p1186
sS'strategy development'
p1187
Vstrategic planning
p1188
sS'postgresql'
p1189
Vpostgresql
p1190
sS'joomla'
p1191
Vjoomla
p1192
sS'product innovation'
p1193
Vproduct innovation
p1194
sS'j2me'
p1195
Vjava platform, micro edition
p1196
sS'r programming langauge'
p1197
Vr (programming language)
p1198
sS'vehicle crash analysis'
p1199
Vcrash simulation
p1200
sS'soa'
p1201
Vservice-oriented architecture
p1202
sS'consulting'
p1203
Vconsulting
p1204
sS'trading systems'
p1205
Vautomated trading system
p1206
sS'protein chemistry'
p1207
Vprotein
p1208
sVall business related
p1209
S'Business_education'
p1210
sVmba
p1211
S'Master_of_Business_Administration'
p1212
sS'entrepreneur'
p1213
Ventrepreneurship
p1214
sS'haskell'
p1215
Vhaskell (programming language)
p1216
sS'distance learning'
p1217
Vdistance education
p1218
sS'environmental policy'
p1219
Venvironmental policy
p1220
sS'sox'
p1221
Vsarbanes%e2%80%93oxley act
p1222
sS'copyright law'
p1223
Vcopyright law of the united states of america
p1224
sS'jdbc'
p1225
Vjava database connectivity
p1226
sS'gis'
p1227
Vgeographic information system
p1228
sS'abaqus'
p1229
Vabaqus
p1230
sS'sustainable development'
p1231
Vsustainable development
p1232
sS'exceptional communication'
p1233
Vcommunications training
p1234
sS'offshoring'
p1235
Voffshoring
p1236
sS'wordpress'
p1237
Vwordpress
p1238
sS'adaptability'
p1239
Vadaptability
p1240
sS'astrophysics'
p1241
Vastrophysics
p1242
sS'campaign management'
p1243
Venterprise campaign management
p1244
sS'model thinking'
p1245
Vscott e. page
p1246
sVpassionate about retail
p1247
S'Decathlon_Group'
p1248
sS'pals'
p1249
Vpals
p1250
sS'synthesis'
p1251
Vsynthesis
p1252
sS'raman'
p1253
Vraman spectroscopy
p1254
sS'webi'
p1255
Vweb intelligence
p1256
sS'radiometry'
p1257
Vradiometry
p1258
sS'econometric modeling'
p1259
Veconometric model
p1260
sS'wireless'
p1261
Vwireless
p1262
sS'balanced scorecard'
p1263
Vbalanced scorecard
p1264
sS'incorporation'
p1265
Vincorporation
p1266
sS'msbi'
p1267
Vbusiness intelligence tools
p1268
sS'bash script'
p1269
Vbash (unix shell)
p1270
sVadvanced data analysis
p1271
S'Analytics'
p1272
sS'bidw'
p1273
Vbusiness intelligence
p1274
sS'sales efectiveness'
p1275
Vsales effectiveness
p1276
sVbids
p1277
S'Bidding'
p1278
sS'google docs'
p1279
Vgoogle docs
p1280
sS'data architecture'
p1281
Vdata architecture
p1282
sS'electrical engineering'
p1283
Velectrical engineering
p1284
sS'strategy consulting'
p1285
Vrisk and strategic consulting
p1286
sS'organizational analysis'
p1287
Vorganizational analysis
p1288
sS'powershell'
p1289
Vwindows powershell
p1290
sS'higher education'
p1291
Vhigher education
p1292
sVcomputing
p1293
S'Computing'
p1294
sS'spark mllib'
p1295
Vmllib-naive-bayes.html
p1296
sS'theoretical physics'
p1297
Vtheoretical physics
p1298
sS'front office'
p1299
Vfront office
p1300
sS'accounting'
p1301
Vaccounting
p1302
sS'network architecture'
p1303
Vnetwork architecture
p1304
sS'economic research'
p1305
Veconomic research service
p1306
sS'application design'
p1307
Vjoint application design
p1308
sS'market development'
p1309
Vmarket development
p1310
sS'cron'
p1311
Vcron
p1312
sS'excel'
p1313
Vmicrosoft excel
p1314
sS'leadership quality'
p1315
Vleadership
p1316
sS'epm'
p1317
Venterprise performance management
p1318
sS'sybase'
p1319
Vsybase
p1320
sS'network hardware'
p1321
Vnetworking hardware
p1322
sS'computer science'
p1323
Vcomputer science
p1324
sVmy sql
p1325
S'MySQL'
p1326
sS'jenkins'
p1327
Vjenkins (software)
p1328
sS'technology planning'
p1329
Vstrategic technology plan
p1330
sS'node'
p1331
Vnode
p1332
sS'toad'
p1333
Vtoad
p1334
sS'technology management'
p1335
Vtechnology management
p1336
sS'football'
p1337
Vfootball
p1338
sS'customer retention'
p1339
Vcustomer retention
p1340
sS'sales force development'
p1341
Vsalesforce.com
p1342
sS'incident management'
p1343
Vincident management
p1344
sVgoogle chrome extensions
p1345
S'Google_Chrome_Extensions'
p1346
sS'sql'
p1347
Vsql
p1348
sS'office management'
p1349
Voffice management
p1350
sS'neuroscience'
p1351
Vneuroscience
p1352
sS'financial audits'
p1353
Vfinancial audit
p1354
sS'disaster recovery'
p1355
Vdisaster recovery
p1356
sS'open-minded'
p1357
Vopen-mindedness
p1358
sS'cloud computing'
p1359
Vcloud computing
p1360
sS'amazon web services (aws)'
p1361
Vamazon web services
p1362
sS'business strategy'
p1363
Vstrategic management
p1364
sS'tomcat'
p1365
Vapache tomcat
p1366
sS'broadband'
p1367
Vbroadband
p1368
sS'exploratory data analysis'
p1369
Vexploratory data analysis
p1370
sS'technical sales '
p1371
Vsales engineering
p1372
sVbusiness skills
p1373
S'Skills_for_Business'
p1374
sS'data cleaning'
p1375
Vdata cleansing
p1376
sS'roi'
p1377
Vreturn on investment
p1378
sS'diplomacy'
p1379
Vdiplomacy
p1380
sS'oss'
p1381
Voss
p1382
sS'smed'
p1383
Vsingle-minute exchange of die
p1384
sS'event management software'
p1385
Vevent management software
p1386
sS'switches'
p1387
Vswitch
p1388
sS'pnl management'
p1389
Vproduct management
p1390
sS'mql4'
p1391
Vmetatrader 4
p1392
sS'fluent in the german language'
p1393
Vlist of multilingual presidents of the united states
p1394
sS'technical leadership'
p1395
Vmodes of leadership
p1396
sS'social robotics'
p1397
Vsocial robot
p1398
sS'microblogging'
p1399
Vmicroblogging
p1400
sS'flask'
p1401
Vflask (web framework)
p1402
sS'multimedia systems'
p1403
Vmultimedia
p1404
sS'project management skills'
p1405
Vproject management
p1406
sS'java enterprise edition'
p1407
Vjava platform, enterprise edition
p1408
sVinovation
p1409
S'Innovation'
p1410
sS'algorithmic design'
p1411
Valgorithm design
p1412
sS'crystal xcelsius'
p1413
Vbusiness objects
p1414
sVtechnical consulting
p1415
S'Information_technology_consulting'
p1416
sS'glms'
p1417
Vglms glucosamine-6-phosphate activated ribozyme
p1418
sS'wcdma'
p1419
Vw-cdma (umts)
p1420
sS'systems evaluation'
p1421
Vservice evaluation system
p1422
sS'servicing'
p1423
Vservicing
p1424
sS'powervm'
p1425
Vpowervm
p1426
sS'blast'
p1427
Vblast
p1428
sS'atomic force microscopy'
p1429
Vatomic force microscopy
p1430
sS'political polling'
p1431
Vopinion poll
p1432
sS'gui'
p1433
Vgraphical user interface
p1434
sS'ruby on rails'
p1435
Vruby on rails
p1436
sS'ug courses relevant to data analytics: prob. and stats'
p1437
Vstatistics
p1438
sS'basic python'
p1439
Vsimpleprograms
p1440
sS'civil engineering'
p1441
Vcivil engineering
p1442
sS'real estate'
p1443
Vreal estate
p1444
sS'bilingual-english/spanish'
p1445
Vspain
p1446
sVparallel numerical methods for math
p1447
S'Numerical_analysis'
p1448
sS'ict'
p1449
Vict
p1450
sS'competition law'
p1451
Vcompetition law
p1452
sS'css javascript'
p1453
Vwikipedia:catalogue of css classes
p1454
sS'cgi'
p1455
Vcommon gateway interface
p1456
sS'pmp'
p1457
Vproject management professional
p1458
sS'german - speak/read/write'
p1459
Vlist of multilingual presidents of the united states
p1460
sVproduct promotion
p1461
S'Promotion_(marketing)'
p1462
sS'cobol'
p1463
Vcobol
p1464
sS'project management in tenders and bids'
p1465
Vcall for bids
p1466
sS'process mapping'
p1467
Vbusiness process mapping
p1468
sS'probabilistic modelling'
p1469
Vcategory:probabilistic models
p1470
sS'pmo'
p1471
Vproject management office
p1472
sS'pmi'
p1473
Vpmi
p1474
sS'vendita emozionale e sensoriale'
p1475
Vmarketing
p1476
sS'crystal report'
p1477
Vcrystal reports
p1478
sS'deduplication'
p1479
Vdata deduplication
p1480
sS'b.tech'
p1481
Vbachelor of technology
p1482
sS'ssis'
p1483
Vsql server integration services
p1484
sS'nosql bigdata'
p1485
Vnosql
p1486
sS'creative writing'
p1487
Vcreative writing
p1488
sS'professional services'
p1489
Vprofessional services
p1490
sS'job search support'
p1491
Vsupported employment
p1492
sS'basic forensic'
p1493
Vforensic science
p1494
sS'know  java'
p1495
Vdid you know
p1496
sS'windchill'
p1497
Vwind chill
p1498
sVimplementation of systems
p1499
S'Implementation'
p1500
sS'transition management'
p1501
Vtransition management
p1502
sS'french'
p1503
V
sS'water'
p1504
Vwater
p1505
sS'fluency in about six different languages'
p1506
Vpolyglotism
p1507
sS'financial management'
p1508
Vfinancial management
p1509
sS'mockups'
p1510
Vmockup
p1511
sS'apache'
p1512
Vapache
p1513
sVteacher
p1514
S'Teacher'
p1515
sVchange
p1516
S'Change'
p1517
sVdomain knowledge
p1518
S'Domain_knowledge'
p1519
sS'tobacco and a glass company'
p1520
Vdipping tobacco
p1521
sVintermediate machine learning
p1522
S'Transduction_(machine_learning)'
p1523
sS'technology advisory'
p1524
Vadviser
p1525
sS'vb.net'
p1526
Vvisual basic .net
p1527
sS'dcf valuation'
p1528
Vdiscounted cash flow
p1529
sS'thin films'
p1530
Vthin film
p1531
sS'software testing'
p1532
Vsoftware testing
p1533
sS'jav'
p1534
Vjav
p1535
sS'vsphere'
p1536
Vvmware vsphere
p1537
sS'english-chinese translation'
p1538
Vtranslation
p1539
sS'hospitality'
p1540
Vhospitality
p1541
sS'navigation'
p1542
Vnavigation
p1543
sS'numerical methods'
p1544
Vnumerical analysis
p1545
sS'excel modeling'
p1546
Vfinancial modeling
p1547
sS'team-oriented'
p1548
Vteam%20oriented
p1549
sS'desktop publishing'
p1550
Vdesktop publishing
p1551
sS'fascinated by challenges & change'
p1552
Vfascination ~eternal love mix~
p1553
sS'database admin'
p1554
Vdatabase administrator
p1555
sS'test driven development'
p1556
Vtest-driven development
p1557
sS'hydroelectric'
p1558
Vhydroelectricity
p1559
sS'account management'
p1560
Vaccount manager
p1561
sS'sustainable energy'
p1562
Vsustainable energy
p1563
sS'smart working'
p1564
Vsmart work
p1565
sVabstract algebra
p1566
S'Abstract_algebra'
p1567
sVsql  
p1568
S'SQL'
p1569
sS'business model canvas'
p1570
Vbusiness model canvas
p1571
sS'ca7'
p1572
Vca-7 (software)
p1573
sS'perl'
p1574
Vperl
p1575
sS'stochastic differential equations'
p1576
Vstochastic differential equation
p1577
sS'visio'
p1578
Vmicrosoft visio
p1579
sS'basic python programming'
p1580
Vpython (programming language)
p1581
sS'health policy analysis'
p1582
Vhealth policy
p1583
sVtheoretical
p1584
S'Theory'
p1585
sS'data management'
p1586
Vdata management
p1587
sVmaintenance of data dictionaries
p1588
S'Data_dictionary'
p1589
sS'cloud applications'
p1590
Vcategory:cloud applications
p1591
sS'architecture frameworks'
p1592
Varchitecture framework
p1593
sS'test analysis'
p1594
Vpost-hoc analysis
p1595
sS'neurophysiology'
p1596
Vneurophysiology
p1597
sS'mechanical and electronic engineering'
p1598
Vmechanical engineering
p1599
sS'black belt'
p1600
Vblack belt
p1601
sS'uat'
p1602
Vacceptance testing
p1603
sS'business process'
p1604
Vbusiness process
p1605
sVvisual
p1606
S'Visual.ly'
p1607
sS'geophysics'
p1608
Vgeophysics
p1609
sS'oop'
p1610
Vobject-oriented programming
p1611
sVdata processing
p1612
S'Data_processing'
p1613
sVmany more
p1614
S'How_Many_More_Times'
p1615
sS'stochastic analysis'
p1616
Vstochastic calculus
p1617
sS'research project management'
p1618
Vproject management
p1619
sS'technology consulting'
p1620
Vinformation technology consulting
p1621
sS'dhtml'
p1622
Vdynamic html
p1623
sS'functional programming'
p1624
Vfunctional programming
p1625
sS'facilitating'
p1626
Vfacilitation
p1627
sVvisualisations
p1628
S'Visualization'
p1629
sS'business concept development'
p1630
Vnew product development
p1631
sS'machine learning'
p1632
Vmachine learning
p1633
sVcam
p1634
S'Cam'
p1635
sS'gestione del cliente'
p1636
Vcustomer relationship management
p1637
sS'aviation operations'
p1638
Vunited states senate commerce subcommittee on aviation operations, safety, and security
p1639
sS'cluster analysis'
p1640
Vcluster analysis
p1641
sS'cae'
p1642
Vcae
p1643
sS'cad'
p1644
Vcomputer-aided design
p1645
sS'ca-scheduler'
p1646
Vca:schedule
p1647
sS'private cloud'
p1648
Vvirtual private cloud
p1649
sS'nursing'
p1650
Vnursing
p1651
sS'speak fluently spanish'
p1652
Vspanish language in the united states
p1653
sS'quantum information'
p1654
Vquantum information
p1655
sS'lead management'
p1656
Vlead management
p1657
sS'p&l'
p1658
Vincome statement
p1659
sS'certified scrum master csm'
p1660
Vscrum (software development)
p1661
sS'data sciences (coursera - introduction to data science)'
p1662
Vhow-do-i-become-a-data-scientist
p1663
sS'presentation and interpersonal skills'
p1664
Vtalk%3ainterpersonal skills
p1665
sS'nems'
p1666
Vnems
p1667
sS'sql oracle'
p1668
Voracle sql developer
p1669
sS'spc'
p1670
Vstatistical process control
p1671
sS'random forest'
p1672
Vrandom forest
p1673
sS'business modeling'
p1674
Vbusiness model
p1675
sS'green building'
p1676
Vgreen building
p1677
sS'windows rt'
p1678
Vwindows rt
p1679
sS'simulink'
p1680
Vsimulink
p1681
sS'sharp mind'
p1682
Vsharp mind
p1683
sS'provisioning'
p1684
Vprovisioning
p1685
sS'executing test plans'
p1686
Vtest management
p1687
sS'computer vision'
p1688
Vcomputer vision
p1689
sS'adobe creative suite'
p1690
Vadobe creative suite
p1691
sS'rock mechanics'
p1692
Vrock mechanics
p1693
sS'customer engagement'
p1694
Vcustomer engagement
p1695
sS'document drafting'
p1696
Vdraft document
p1697
sS'html 5'
p1698
Vhtml5
p1699
sVtroubleshooting: hardware
p1700
S'Troubleshooting'
p1701
sS'data mining technique'
p1702
Vdata mining
p1703
sS'employee relations'
p1704
Vemployee relationship management
p1705
sS'computational biology'
p1706
Vcomputational biology
p1707
sS'microsoft publisher'
p1708
Vmicrosoft publisher
p1709
sS'executive management'
p1710
Vsenior management
p1711
sS'quantum field theory'
p1712
Vquantum field theory
p1713
sS'business management.'
p1714
Vmanagement
p1715
sS'medical sales'
p1716
Vpharmaceutical sales representative
p1717
sS'sustainability'
p1718
Vsustainability
p1719
sS'mac'
p1720
Vmac
p1721
sS'oracle data integrator'
p1722
Voracle data integrator
p1723
sS'data wrangling'
p1724
Vdata wrangling
p1725
sS'iso 27000'
p1726
Viec 27000
p1727
sS'integer optimization'
p1728
Vinteger programming
p1729
sS'data'
p1730
Vdata
p1731
sS'distributed team management'
p1732
Vdistributed management
p1733
sS'commodity'
p1734
Vcommodity
p1735
sS'object oriented design'
p1736
Vobject-oriented design
p1737
sS'fiber optics'
p1738
Voptical fiber
p1739
sS'ibm cognos bi'
p1740
Vibm cognos business intelligence
p1741
sS'people management'
p1742
Vpeople management
p1743
sS'subdivisions'
p1744
Vsubdivisions (song)
p1745
sS'arena simulation software'
p1746
Varena (software)
p1747
sS'tutoring'
p1748
Vtutor
p1749
sS'ppc'
p1750
Vpay per click
p1751
sS'hr outsourcing'
p1752
Vrecruitment process outsourcing
p1753
sS'film photography'
p1754
Vphotographic film
p1755
sS'umts'
p1756
Vuniversal mobile telecommunications system
p1757
sS'record linkage'
p1758
Vrecord linkage
p1759
sS'data warehouse architecture'
p1760
Vdata warehouse architectures
p1761
sS'technical architecture'
p1762
Vinformation technology architecture
p1763
sS'business english'
p1764
Vbusiness english
p1765
sS'functional mathematics'
p1766
Vfunctional (mathematics)
p1767
sS'quality control'
p1768
Vquality control
p1769
sVplc
p1770
S'Programmable_logic_controller'
p1771
sS'credit risk'
p1772
Vcredit risk
p1773
sS'octave programming'
p1774
Vgnu octave
p1775
sS'arduino'
p1776
Varduino
p1777
sS'commodity risk management'
p1778
Vcommodity risk
p1779
sS'process engineering'
p1780
Vprocess engineering
p1781
sS'exploratory testing'
p1782
Vexploratory testing
p1783
sS'product marketing'
p1784
Vproduct marketing
p1785
sS'gtm'
p1786
Vgtm
p1787
sS'ideation'
p1788
Videation
p1789
sS'active directory administration'
p1790
Vactive directory
p1791
sS'digital media'
p1792
Vdigital media
p1793
sS'coaching'
p1794
Vcoaching
p1795
sVcasualty insurance
p1796
S'Casualty_insurance'
p1797
sS'defect tracking'
p1798
Vdefect tracking
p1799
sS'microstrategy'
p1800
Vmicrostrategy
p1801
sS'istqb'
p1802
Vinternational software testing qualifications board
p1803
sS'suspension'
p1804
Vsuspension
p1805
sS'survey research'
p1806
Vsurvey research
p1807
sS'dementia care mapping- basic user'
p1808
Vdementia care mapping
p1809
sVvisits to clients sites for trouble shooting
p1810
S'Cross-site_scripting'
p1811
sS'radio network planning'
p1812
Vradio resource management
p1813
sS'order management'
p1814
Vorder management system
p1815
sVlearning all skills required to complete a real world project
p1816
S'Situated_learning'
p1817
sS'finance'
p1818
Vfinance
p1819
sS'network planning'
p1820
Vnetwork planning and design
p1821
sVug courses relevant to data analytics: prob.
p1822
S'Statistics_education'
p1823
sS'user interface design'
p1824
Vuser interface design
p1825
sS'drilling'
p1826
Vdrilling
p1827
sS'version control'
p1828
Vrevision control
p1829
sVmozilla firefox
p1830
S'Firefox'
p1831
sS'analytical skills'
p1832
Vanalytical skill
p1833
sS'iso 20000'
p1834
Viec 20000
p1835
sS'innovation management'
p1836
Vinnovation management
p1837
sS'patent searching'
p1838
Vcategory:patent search services
p1839
sVmonitoring solutions
p1840
S'Comparison_of_network_monitoring_systems'
p1841
sS'logistic regression'
p1842
Vlogistic regression
p1843
sS'financial controlling'
p1844
Vcomptroller
p1845
sS'advanced excel'
p1846
Vmicrosoft excel
p1847
sS'key account development'
p1848
Vaccount manager
p1849
sVstudy setup
p1850
S'Wizard_of_Oz_experiment'
p1851
sS'javas'
p1852
Vjavascript
p1853
sS'customer service and client solutions'
p1854
Vservices.html
p1855
sS'renewable energy'
p1856
Vrenewable energy
p1857
sS'aerospace mechanisms'
p1858
Vcanaerospace
p1859
sS'channel marketing'
p1860
Vmarketing channel
p1861
sVorganizational skills
p1862
S'Organizing'
p1863
sS'excel dashboards'
p1864
Vdashboard (business)
p1865
sS'dashboard design & development'
p1866
Vdashboard (business)
p1867
sVdementia care mapping-  user
p1868
S'Dementia_Care_Mapping'
p1869
sS'big data manipulation'
p1870
Vdata-intensive computing
p1871
sS'business modelling'
p1872
Vbusiness model
p1873
sS'air force'
p1874
Vunited states air force
p1875
sS'factory'
p1876
Vfactory
p1877
sS'healthy nutrition'
p1878
Vnutrition
p1879
sS'mahout'
p1880
Vapache mahout
p1881
sS'e-gov coordinator'
p1882
Vcompat.egov
p1883
sS'android sdk'
p1884
Vandroid software development
p1885
sS'gamification'
p1886
Vgamification
p1887
sVadvance programming
p1888
S'Advanced_Perl_Programming'
p1889
sS'internet'
p1890
Vinternet
p1891
sS'computer hardware'
p1892
Vcomputer hardware
p1893
sS'hci'
p1894
Vhuman%e2%80%93computer interaction
p1895
sVhigh-speed electronic devices
p1896
S'Semiconductor_device'
p1897
sS'instrumentation'
p1898
Vinstrumentation
p1899
sS'hibernate'
p1900
Vhibernate (java)
p1901
sS'theory'
p1902
Vtheory
p1903
sS'branch banking'
p1904
Vbranch (banking)
p1905
sS'compatibility testing'
p1906
Vcompatibility testing
p1907
sS'procmail'
p1908
Vprocmail
p1909
sS'business analytics'
p1910
Vbusiness analytics
p1911
sS'ajax'
p1912
Vajax (programming)
p1913
sS'git'
p1914
Vgit (software)
p1915
sS'technology strategy'
p1916
Vtechnology strategy
p1917
sVhadoop etc
p1918
S'wikipedia.html'
p1919
sS'openam'
p1920
Vopenam
p1921
sS'training'
p1922
Vtraining
p1923
sS'research leadership'
p1924
Vleadership studies
p1925
sS'natural resources'
p1926
Vnatural resource
p1927
sS'mobile communications'
p1928
Vgsm
p1929
sVplanning skills
p1930
S'Planning'
p1931
sS'ocaml'
p1932
Vocaml
p1933
sS'data analyst'
p1934
Vdata analysis
p1935
sS'tecniche di vendita'
p1936
Vtecniche di vendita
p1937
sVhold in my youth
p1938
S'Friend_of_My_Youth'
p1939
sS'opencv'
p1940
Vopencv
p1941
sS'website development'
p1942
Vweb development
p1943
sS'ansys'
p1944
Vansys
p1945
sS'support vector machines'
p1946
Vsupport vector machine
p1947
sS'eu competition law'
p1948
Veuropean union competition law
p1949
sS'languages translation and interpretation'
p1950
Vinstitute of translation %26 interpreting
p1951
sS'customer insight'
p1952
Vcustomer insight
p1953
sS'solutions marketing'
p1954
Vmarketing
p1955
sS'engineering of embedded system'
p1956
Vembedded system
p1957
sS'proofreading'
p1958
Vproofreading
p1959
sS'spanish'
p1960
V
sS'mathematical modeling'
p1961
Vmathematical model
p1962
sS'parametrics'
p1963
Vparametric
p1964
sS'sports management'
p1965
Vsport management
p1966
sS'image processing'
p1967
Vimage processing
p1968
sS'software verification'
p1969
Vsoftware verification
p1970
sS'data mapping'
p1971
Vdata mapping
p1972
sS'engineer'
p1973
Vengineer
p1974
sS'fmri'
p1975
Vfunctional magnetic resonance imaging
p1976
sS'facilitation'
p1977
Vfacilitation
p1978
sS'enterprise architecture'
p1979
Venterprise architecture
p1980
sS'customer segmentation analysis'
p1981
Vmarket segmentation
p1982
sS'google app engine'
p1983
Vgoogle app engine
p1984
sS'typing'
p1985
Vtyping
p1986
sS'mining'
p1987
Vmining
p1988
sS'it architecture'
p1989
Vinformation technology architecture
p1990
sS'gest\xc3\xa3o de empresas ligada ramo de combustiveis'
p1991
Vgest%c3%a3o da frota de ve%c3%adculos
p1992
sS'enterprise valuation'
p1993
Venterprise value
p1994
sS'channel strategys'
p1995
Vmarketing channel
p1996
sS'scanning electron microscopy'
p1997
Vscanning electron microscope
p1998
sS'mems'
p1999
Vmicroelectromechanical systems
p2000
sS'microsoft vba/vb/vb.net'
p2001
Vvisual basic
p2002
sS'inventor'
p2003
Vautodesk inventor
p2004
sVms office
p2005
S'Microsoft_Office'
p2006
sS'stlc'
p2007
Vsoftware testing life cycle
p2008
sS'educational leadership'
p2009
Veducational leadership
p2010
sS'remote sensing'
p2011
Vremote sensing
p2012
sS'performance point'
p2013
Vmicrosoft office performancepoint server
p2014
sS'lucene'
p2015
Vlucene
p2016
sS'organizational leadership'
p2017
Vleadership studies
p2018
sS'r'
Vr (programming language)
p2019
sS'business management'
p2020
Vmanagement
p2021
sS'start-ups'
p2022
Vstartup company
p2023
sS'proactive'
p2024
Vproactiv
p2025
sS'physiotherapist'
p2026
Vphysical therapy
p2027
sS'quantitative data analysis'
p2028
Vquantitative research
p2029
sS'identity management'
p2030
Videntity management
p2031
sS'ant'
p2032
Vant
p2033
sS'inpatient'
p2034
Vinpatient care
p2035
sVsafety workplace
p2036
S'Workplace_safety'
p2037
sS'critical analysis'
p2038
Vcritical thinking
p2039
sS'commissioning'
p2040
Vproject commissioning
p2041
sS'sap'
p2042
Vsap se
p2043
sS'java/j2ee'
p2044
Vjava platform, enterprise edition
p2045
sS'cassandra'
p2046
Vapache cassandra
p2047
sS'microcontrollers'
p2048
Vmicrocontroller
p2049
sVpractical knowledge in data science
p2050
S'Data_science'
p2051
sS'objective'
p2052
Vobjective
p2053
sS'solution architect -  cloud computing'
p2054
Vibm%20cloud%20computing%20reference%20architecture%203.0
p2055
sS'competitive intelligence'
p2056
Vcompetitive intelligence
p2057
sS'patient safety'
p2058
Vpatient safety
p2059
sS'valuation modeling'
p2060
Vvaluation (finance)
p2061
sVoral presentation skills
p2062
S'Presentation'
p2063
sS'desktop hardware'
p2064
Vdesktop and mobile architecture for system hardware
p2065
sS'social media ads management'
p2066
Vsocial media
p2067
sS'account reconciliation'
p2068
Vreconciliation (accounting)
p2069
sS'virologist'
p2070
Vvirology
p2071
sS'biomedical device design'
p2072
Vmedical device
p2073
sVbussines
p2074
S'Business'
p2075
sS'latex'
p2076
Vlatex
p2077
sS'test management'
p2078
Vtest management
p2079
sS'design patterns'
p2080
Vsoftware design pattern
p2081
sS'system testing'
p2082
Vsystem testing
p2083
sS'sql server'
p2084
Vmicrosoft sql server
p2085
sS'microsoft word'
p2086
Vmicrosoft word
p2087
sS'scrum master csm'
p2088
Vscrum (software development)
p2089
sS'political strategy'
p2090
Vpolitical strategy
p2091
sS'tncc'
p2092
Vthomas nelson community college
p2093
sS'mechanical testing'
p2094
Vcategory:mechanical tests
p2095
sS'liquidity'
p2096
Vmarket liquidity
p2097
sS'nlp'
p2098
Vneuro-linguistic programming
p2099
sS'genetic engineering'
p2100
Vgenetic engineering
p2101
sS'database administrator for db2 luw'
p2102
Vdb2 database administration tool.html
p2103
sS'german'
p2104
V
sS'ss7'
p2105
Vsignalling system no. 7
p2106
sS'visual c++'
p2107
Vvisual c%2b%2b
p2108
sS'social policy'
p2109
Vsocial policy
p2110
sS'financial planning'
p2111
Vfinancial plan
p2112
sS'outsourcing'
p2113
Voutsourcing
p2114
sS'email marketing'
p2115
Vemail marketing
p2116
sVinterpretation
p2117
S'Interpretation'
p2118
sS'bug tracking'
p2119
Vbug tracking system
p2120
sS'xml'
p2121
Vxml
p2122
sS'public outreach'
p2123
Voutreach
p2124
sS'experiment and study setup and implementation'
p2125
Vwizard of oz experiment
p2126
sVmotivated with a proactive approach to work
p2127
S'Proactivity'
p2128
sS'web scraping'
p2129
Vweb scraping
p2130
sS'analytic'
p2131
Vanalytic
p2132
sS'j2ee application development'
p2133
Vjava platform, enterprise edition
p2134
sS'enthusiasm'
p2135
Venthusiasm
p2136
sVadministração
p2137
g2137
sS'android development'
p2138
Vandroid software development
p2139
sVawareness
p2140
S'Awareness'
p2141
sS'social return on investment'
p2142
Vsocial return on investment
p2143
sS'data modeling'
p2144
Vdata modeling
p2145
sVkinesis
p2146
S'Kinesis'
p2147
sS'environmental education'
p2148
Venvironmental education
p2149
sS'moss 2007'
p2150
Vsharepoint
p2151
sS'mandarin'
p2152
Vmandarin
p2153
sS'ssh'
p2154
Vsecure shell
p2155
sS'systems biology'
p2156
Vsystems biology
p2157
sS'm&a modeling'
p2158
Vdilution analysis
p2159
sS'pnl e vendita'
p2160
Vprogrammazione neuro linguistica
p2161
sS'programming & scripting troubleshooting'
p2162
Vserver-side scripting
p2163
sS'amazon ec2'
p2164
Vamazon elastic compute cloud
p2165
sS'c++'
p2166
Vc%2b%2b
p2167
sVilustração
p2168
g2168
sVsql (oracle
p2169
S'Oracle_SQL_Developer'
p2170
sS'marketing and digital marketing consultant'
p2171
Vdigital marketing
p2172
sS'ui testing'
p2173
Vgraphical user interface testing
p2174
sS'kibana'
p2175
Vlogstash
p2176
sS'numerical analy.'
p2177
Vnumerical analysis
p2178
sS'creative strategy'
p2179
Vcreative-strategy.html
p2180
sS'surgery'
p2181
Vsurgery
p2182
sS'back-end'
p2183
Vfront and back ends
p2184
sS'lean startup'
p2185
Vlean startup
p2186
sS'outreach skills'
p2187
Vseminari-wikipedia presentacio-saorin.pdf
p2188
sS'quantitative finance'
p2189
Vmathematical finance
p2190
sS'backbone.js'
p2191
Vbackbone.js
p2192
sS'corporate finance'
p2193
Vcorporate finance
p2194
sS'programming languages'
p2195
Vprogramming language
p2196
sS'managing'
p2197
Vmanagement
p2198
sS'health informatics'
p2199
Vhealth informatics
p2200
sS'object-oriented analysis & design'
p2201
Vobject-oriented analysis and design
p2202
sS'biofuels'
p2203
Vbiofuel
p2204
sS'big data analytics'
p2205
Vbig data
p2206
sV3
S'3_(number)'
p2207
sS'structural bioinformatics'
p2208
Vstructural bioinformatics
p2209
sS'computational physics'
p2210
Vcomputational physics
p2211
sS'regulatory affairs'
p2212
Vregulatory affairs
p2213
sS'applied project management'
p2214
Vproject management
p2215
sS'jboss application server'
p2216
Vwildfly
p2217
sS'analysis of information'
p2218
Vdata analysis
p2219
sS'infrastructure'
p2220
Vinfrastructure
p2221
sVlanguages translation
p2222
S'Translation'
p2223
sS'social network analysis'
p2224
Vsocial network analysis
p2225
sS'combinatorial optimization'
p2226
Vcombinatorial optimization
p2227
sS'relationship management'
p2228
Vcustomer relationship management
p2229
sVchemometrics
p2230
S'Chemometrics'
p2231
sS'pl/ sql'
p2232
Vsql
p2233
sVjewlery making
p2234
S'Category:Jewellery_making'
p2235
sS'data structures'
p2236
Vdata structure
p2237
sS'sparc'
p2238
Vsparc
p2239
sS'process excellence'
p2240
Vbusiness excellence
p2241
sS'faults diagnosis'
p2242
Vfault detection and isolation
p2243
sS'spark'
p2244
Vspark
p2245
sS'js'
p2246
Vjavascript
p2247
sS'jboss portal'
p2248
Vlist of jboss software
p2249
sS'environmental management systems'
p2250
Venvironmental management system
p2251
sVsocial development
p2252
S'Social_development_theory'
p2253
sS'radio network optimization'
p2254
Vgsm radio frequency optimization
p2255
sS'mechanical drawings'
p2256
Vmechanical systems drawing
p2257
sS'data visualization'
p2258
Vdata visualization
p2259
sS'technical presentations'
p2260
Vtechnical presentation
p2261
sS'facility design'
p2262
Vfile:sns-facility-design.jpg
p2263
sS'many'
p2264
Vmany
p2265
sS'game testing'
p2266
Vgame testing
p2267
sS'solidworks'
p2268
Vsolidworks
p2269
sS'gwt'
p2270
Vgoogle web toolkit
p2271
sS'itil\xc2\xae itilf'
p2272
Vinformation technology infrastructure library
p2273
sS'first aid'
p2274
Vfirst aid
p2275
sS'chemical process safety'
p2276
Vprocess safety
p2277
sS'fx trading'
p2278
Vforeign exchange market
p2279
sS'toyota production system'
p2280
Vtoyota production system
p2281
sVproficiency in word processing
p2282
S'Bilingual_Interactive_Activation_Plus'
p2283
sS'phpmyadmin'
p2284
Vphpmyadmin
p2285
sS'forecasting'
p2286
Vforecasting
p2287
sS'requirement gathering'
p2288
Vrequirements analysis
p2289
sS'characterization'
p2290
Vcharacterization
p2291
sS'robotics'
p2292
Vrobotics
p2293
sS'pos'
p2294
Vpoint of sale
p2295
sS'energy saving: reduction in energy consumption in compressed air systems in various enterprises'
p2296
Vmodern-management-for-efficient-compressed-air-systems-theo-giamakidis-energy-manager-green-air-energy
p2297
sS'basic machine learning knowledge'
p2298
Vmachine learning
p2299
sS'social networking websites'
p2300
Vsocial networking service
p2301
sS'data warehousing'
p2302
Vdata warehouse
p2303
sVcommunications planning
p2304
S'Communication_planning'
p2305
sS'data mining'
p2306
Vdata mining
p2307
sS'qlikview'
p2308
Vqlik
p2309
sS'sap r/3'
p2310
V3
sVinformed
p2311
S'Informed_consent'
p2312
sS'ability to work under pressure'
p2313
Vability%20to%20work%20under%20pressure
p2314
sVproduction
p2315
S'Production'
p2316
sVscidb
p2317
S'SciDB'
p2318
sS'prince2'
p2319
Vprince2
p2320
sS'finance and accounts'
p2321
Vfinancial accounting
p2322
sS'business analyst'
p2323
Vbusiness analyst
p2324
sS'statistical data analysis'
p2325
Vdata analysis
p2326
sS'datawarehouses'
p2327
Vdata warehouse
p2328
sS'molecular biology'
p2329
Vmolecular biology
p2330
sS'spotfire'
p2331
Vspotfire
p2332
sS'antivirus'
p2333
Vantivirus software
p2334
sS'photo-lithography'
p2335
Vphotolithography
p2336
sS'sales operations'
p2337
Vsales operations
p2338
sS'fmcg'
p2339
Vfast-moving consumer goods
p2340
sS'basic operations knowledge'
p2341
Voperational definition
p2342
sS'ruby'
p2343
Vruby (programming language)
p2344
sS'programming & scripting'
p2345
Vscripting language
p2346
sS'bpmn'
p2347
Vbusiness process model and notation
p2348
sS'spanish-speaking'
p2349
Vlist of countries where spanish is an official language
p2350
sS'neurosurgery'
p2351
Vneurosurgery
p2352
sS'network optimization'
p2353
Vnetwork theory
p2354
sS'statisticts'
p2355
Vstatistics
p2356
sS'international trade'
p2357
Vinternational trade
p2358
sVeconomic analysis
p2359
S'Foundations_of_Economic_Analysis'
p2360
sS'social bookmarking'
p2361
Vsocial bookmarking
p2362
sS'application development'
p2363
Vsoftware development
p2364
sS'application design & development'
p2365
Vddwiki.nsf
p2366
sS'ios development'
p2367
Vios
p2368
sS'customer aquisition'
p2369
Vcustomer acquisition management
p2370
sS'linux server'
p2371
Vlinux
p2372
sS'surgical device sales'
p2373
Vmedical device
p2374
sS'simulations'
p2375
Vsimulation
p2376
sS'green belt'
p2377
Vgreen belt
p2378
sS'pitching ideas'
p2379
Vpitch (filmmaking)
p2380
sS'ivr'
p2381
Vinteractive voice response
p2382
sS'susy'
p2383
Vsupersymmetry
p2384
sS'sas programming'
p2385
Vsas (software)
p2386
sS'technology'
p2387
Vtechnology
p2388
sVtecnologia da informação
p2389
g2389
sS'smoke testing'
p2390
Vsmoke testing
p2391
sS'process scheduler'
p2392
Vscheduling (computing)
p2393
sS'linear models'
p2394
Vlinear model
p2395
sS'program management'
p2396
Vprogram management
p2397
sVstrategic planning.
p2398
S'Strategic_planning'
p2399
sS'structural biology'
p2400
Vstructural biology
p2401
sS'marketing and business plans presentations'
p2402
Vbusiness plan
p2403
sS'html'
p2404
Vhtml
p2405
sS'adminkit'
p2406
Vinternet explorer administration kit
p2407
sS'root cause analysis'
p2408
Vroot cause analysis
p2409
sS'model building'
p2410
Vmodel building
p2411
sS'pro engineer'
p2412
Vpro
p2413
sS'genetic programming'
p2414
Vgenetic programming
p2415
sVoil
p2416
S'Oil'
p2417
sS'project execution'
p2418
Vproject management
p2419
sS'internal controls'
p2420
Vinternal control
p2421
sS't-sql'
p2422
Vtransact-sql
p2423
sS'it management software'
p2424
Vhp it management software
p2425
sS'judgment and decision making'
p2426
Vheuristics in judgment and decision-making
p2427
sS'hummingbird'
p2428
Vhummingbird
p2429
sS'earth observation'
p2430
Vearth observation
p2431
sS'awesomeness'
p2432
Vawesomeness
p2433
sS'weka '
p2434
Vweka (machine learning)
p2435
sS'creativity skills'
p2436
Vcreativity
p2437
sS'consumer behaviour'
p2438
Vconsumer behaviour
p2439
sS'matplotlib'
p2440
Vmatplotlib
p2441
sS'etl'
p2442
Vextract, transform, load
p2443
sS'environmental engineering'
p2444
Venvironmental engineering
p2445
sS'protege'
p2446
Vprot%c3%a9g%c3%a9 (software)
p2447
sS'digital marketing'
p2448
Vdigital marketing
p2449
sS'strategic financial planning'
p2450
Vfinancial planning (business)
p2451
sS'nosql'
p2452
Vnosql
p2453
sV(r
p2454
S'R_(programming_language)'
p2455
sS'performance testing'
p2456
Vsoftware performance testing
p2457
sS'rest'
p2458
Vrepresentational state transfer
p2459
sS'ngos'
p2460
Vnon-governmental organization
p2461
sS'gdb'
p2462
Vgnu debugger
p2463
sS'internationalization'
p2464
Vinternationalization
p2465
sS'polish'
p2466
Vpolish wikipedia
p2467
sS'information design'
p2468
Vinformation design
p2469
sS'change management'
p2470
Vchange management
p2471
sS'samba'
p2472
Vsamba
p2473
sS'autocad'
p2474
Vautocad
p2475
sS'public administration'
p2476
Vpublic administration
p2477
sS'hp service manager'
p2478
Vhp business service management
p2479
sS'd3.js'
p2480
Vd3.js
p2481
sS'subversion'
p2482
Vapache subversion
p2483
sS'minimally invasive procedures'
p2484
Vinvasiveness of surgical procedures
p2485
sS'prezi'
p2486
Vprezi
p2487
sS'java algorithms data structures python javascript'
p2488
Vassociative array
p2489
sS'expression blend'
p2490
Vmicrosoft blend
p2491
sS'libreoffice'
p2492
Vlibreoffice
p2493
sS'netapp'
p2494
Vnetapp
p2495
sS'international business in china'
p2496
Vchina europe international business school
p2497
sS'it systems'
p2498
Vinformation systems
p2499
sS'cost control engineering'
p2500
Vcost engineering
p2501
sS'intrapreneurship'
p2502
Vintrapreneurship
p2503
sVread
p2504
S'Read'
p2505
sS'windows server'
p2506
Vwindows server
p2507
sS'corporate sustainability'
p2508
Vcorporate sustainability
p2509
sS'orthopedic'
p2510
Vorthopedic surgery
p2511
sS'paper presentation'
p2512
Vwhat is a paper presentation
p2513
sS'flexplm'
p2514
Vwindchill (software)
p2515
sS'web2py'
p2516
Vweb2py
p2517
sS'customer experience'
p2518
Vcustomer experience
p2519
sS'technology roadmapping'
p2520
Vtechnology roadmap
p2521
sS'silverlight'
p2522
Vmicrosoft silverlight
p2523
sS'wbs'
p2524
Vwork breakdown structure
p2525
sS'data mining algorithms'
p2526
Vdata mining
p2527
sS'organization and leadership development'
p2528
Vleadership development
p2529
sS'brand research'
p2530
Vresearch %26 branding group
p2531
sS'excel powerpivot'
p2532
Vpowerpivot
p2533
sS'contract law'
p2534
Vcontract
p2535
sS'drainage'
p2536
Vdrainage
p2537
sS'firstdoc'
p2538
Vdoc
p2539
sS'apache 2'
p2540
Vapache http server
p2541
sS'regulatory compliance'
p2542
Vregulatory compliance
p2543
sS'anti-spam'
p2544
Vanti-spam techniques
p2545
sS'organization of events'
p2546
Vcategory:organized events
p2547
sS'international sales'
p2548
Vdomestic international sales corporation
p2549
sS'descriptive analysis'
p2550
Vdescriptive statistics
p2551
sS'venture capital'
p2552
Vventure capital
p2553
sS'financial markets'
p2554
Vfinancial market
p2555
sS'public relations'
p2556
Vpublic relations
p2557
sVpmbok® 5ª edição
p2558
g2558
sS'rule engine'
p2559
Vbusiness rules engine
p2560
sS'information retrieval'
p2561
Vinformation retrieval
p2562
sS'software design'
p2563
Vsoftware design
p2564
sS'osi model'
p2565
Vosi model
p2566
sS'resorts'
p2567
Vresort
p2568
sS'military operations'
p2569
Vmilitary operation
p2570
sS'organizing'
p2571
Vorganizing
p2572
sS'change leadership'
p2573
Vchange management
p2574
sS'pharmaceutical industry'
p2575
Vpharmaceutical industry
p2576
sS'market risk'
p2577
Vmarket risk
p2578
sS'pilates'
p2579
Vpilates
p2580
sS'genetics'
p2581
Vgenetics
p2582
sS'website localization'
p2583
Vwebsite localization
p2584
sS'windows'
p2585
Vmicrosoft windows
p2586
sS'redis'
p2587
Vredis
p2588
sS'bigdata'
p2589
Vbig data
p2590
sS'legal'
p2591
Vlaw
p2592
sS'equity research'
p2593
Vsecurities research
p2594
sS'computational investment'
p2595
Vindex.php?title=computational investing i
p2596
sS'spatial econometrics'
p2597
Vspatial econometrics
p2598
sS'hustle'
p2599
Vhustle (tv series)
p2600
sS'oracle data miner'
p2601
Voracle data mining
p2602
sS'open source projects'
p2603
Vopen source
p2604
sS'assembly'
p2605
Vassembly
p2606
sS'microsoft crm'
p2607
Vmicrosoft dynamics crm
p2608
sS'business'
p2609
Vbusiness
p2610
sS'asterisk'
p2611
Vasterisk (pbx)
p2612
sS'manufacturing engineering'
p2613
Vmanufacturing engineering
p2614
sS'international arbitration'
p2615
Vinternational arbitration
p2616
sVpython (s)
p2617
S'Python'
p2618
sS'complex problem solving'
p2619
Vproblem solving
p2620
sS'leadership'
p2621
Vleadership
p2622
sS'biomedical engineering'
p2623
Vbiomedical engineering
p2624
sS'solar thermal'
p2625
Vsolar thermal energy
p2626
sS'organic chemistry'
p2627
Vorganic chemistry
p2628
sS'control system engineering'
p2629
Vcontrol engineering
p2630
sS'oracle development (pl/sql'
p2631
Voracle sql developer
p2632
sS'business process re-engineering'
p2633
Vbusiness process reengineering
p2634
sS'metaheuristic algorithms'
p2635
Vmetaheuristic
p2636
sS'test case generation'
p2637
Vtest automation
p2638
sS'compiler construction'
p2639
Vcompiler construction
p2640
sS'xna'
p2641
Vmicrosoft xna
p2642
sS'cuda'
p2643
Vcuda
p2644
sS'autotools'
p2645
Vgnu build system
p2646
sS'road'
p2647
Vroad
p2648
sS'outlook'
p2649
Vmicrosoft outlook
p2650
sS'fundraising'
p2651
Vfundraising
p2652
sS'franchising'
p2653
Vfranchising
p2654
sS'communication'
p2655
Vcommunication
p2656
sS'film production'
p2657
Vfilmmaking
p2658
sS'due diligence'
p2659
Vdue diligence
p2660
sS'web application development'
p2661
Vweb application development
p2662
sS'feasibiity studies'
p2663
Vfeasibility study
p2664
sVaccounts
p2665
S'Account'
p2666
sS'capital equipment sales'
p2667
Vcapital equipment
p2668
sS'corel draw'
p2669
Vcoreldraw
p2670
sVbusiness develoment
p2671
S'Business_development'
p2672
sS'php4/5'
p2673
Vphp
p2674
sS'electrical safety'
p2675
Velectrical safety testing
p2676
sS'instala\xc3\xa7\xc3\xa3o'
p2677
Vinstala%c3%a7%c3%a3o (arte)
p2678
sS'legacy modernization'
p2679
Vsoftware modernization
p2680
sS'strategic consulting'
p2681
Vrisk and strategic consulting
p2682
sS'commodity pricing'
p2683
Vcommodity price index
p2684
sS'core network'
p2685
Vcore network
p2686
sVdata munging
p2687
S'Data_wrangling'
p2688
sS'pivot tables'
p2689
Vpivot table
p2690
sS'adobe after effects'
p2691
Vadobe after effects
p2692
sVhealth economics
p2693
S'Health_economics'
p2694
sS'glpsol'
p2695
Vgnu linear programming kit
p2696
sS'quote preparation and follow up.'
p2697
Vkeep calm and carry on
p2698
sS'chemical engineering'
p2699
Vchemical engineering
p2700
sS'computer security'
p2701
Vcomputer security
p2702
sVprofiency in data analysis
p2703
S'EF_English_Proficiency_Index'
p2704
sS'emc storage'
p2705
Vemc corporation
p2706
sS'oracle soa'
p2707
Voracle soa suite
p2708
sS'illustrator'
p2709
Vadobe illustrator
p2710
sVpatent   
p2711
S'Patent'
p2712
sS'cellular communications'
p2713
Vcellular communication (biology)
p2714
sS'real estate transactions'
p2715
Vreal estate transaction
p2716
sS'quality process building for organizations'
p2717
Vbusiness process reengineering
p2718
sS'comparative law'
p2719
Vcomparative law
p2720
sS'requirements analysis'
p2721
Vrequirements analysis
p2722
sS'sales'
p2723
Vsales
p2724
sS'developing training strategies'
p2725
Vexecutive development
p2726
sS'nagios'
p2727
Vnagios
p2728
sS'objective-c'
p2729
Vobjective-c
p2730
sS'ssrs'
p2731
Vsql server reporting services
p2732
sS'microsoft office;'
p2733
Vmicrosoft office
p2734
sS'oracle rac'
p2735
Voracle rac
p2736
sS'sla management'
p2737
Vservice-level agreement
p2738
sS'adso'
p2739
Vadso
p2740
sS'quickbooks'
p2741
Vquickbooks
p2742
sS'digital signal processing'
p2743
Vdigital signal processing
p2744
sS'basic visualization and design'
p2745
Vvisualization (computer graphics)
p2746
sS'kdevelop'
p2747
Vkdevelop
p2748
sS'scheduling management'
p2749
Vschedule (project management)
p2750
sS'biochemistry'
p2751
Vbiochemistry
p2752
sS'mathematica'
p2753
Vmathematica
p2754
sS'website updating'
p2755
Vweb content management system
p2756
sV5
S'5_(number)'
p2757
sS'database development'
p2758
Vdatabase
p2759
sS'mathematics'
p2760
Vmathematics
p2761
sS'hybrid electric vehicles'
p2762
Vhybrid electric vehicle
p2763
sS'coso framework'
p2764
Vcommittee of sponsoring organizations of the treadway commission
p2765
sVphys
p2766
S'Phys.org'
p2767
sS'general business analysis'
p2768
Va guide to the business analysis body of knowledge
p2769
sS'knowledge-hungry learner'
p2770
Vhungry%20for%20knowledge
p2771
sS'aws'
p2772
Vamazon web services
p2773
sS'data management and analysis'
p2774
Vclinical data management
p2775
sS'collaborative problem solving'
p2776
Vcollaborative problem solving
p2777
sS'mechanical'
p2778
Vmechanical
p2779
sS'operations analysis'
p2780
Vperformance operational analysis
p2781
sS'and machine learning)'
p2782
Vmachine learning
p2783
sS'event driven architecture'
p2784
Vevent-driven architecture
p2785
sS'twitter api'
p2786
Vtwitter
p2787
sS'simpack'
p2788
Vsimpack
p2789
sS'stochastic modeling'
p2790
Vstochastic modelling (insurance)
p2791
sVall
p2792
S'All_(band)'
p2793
sS'qualitative research'
p2794
Vqualitative research
p2795
sS'chinese'
p2796
Vchinese wikipedia
p2797
sS'geoinformatics'
p2798
Vgeoinformatics
p2799
sS'outstanding interpersonal communication skills'
p2800
Vinterpersonal-skills.asp
p2801
sS'borland delphi'
p2802
Vdelphi (programming language)
p2803
sS'microsoft sql server'
p2804
Vmicrosoft sql server
p2805
sS'intercultural communication'
p2806
Vintercultural communication
p2807
sS'numeracy'
p2808
Vnumeracy
p2809
sS'interior design'
p2810
Vinterior design
p2811
sS'japanese language'
p2812
Vjapanese language
p2813
sS'belaying'
p2814
Vbelaying
p2815
sS'agile methodologies'
p2816
Vagile software development
p2817
sS'pci dss'
p2818
Vpayment card industry data security standard
p2819
sVpresentation
p2820
S'Presentation'
p2821
sS'oscommerce'
p2822
Voscommerce
p2823
sS'materials science'
p2824
Vmaterials science
p2825
sVdata product
p2826
S'Product_data_management'
p2827
sS'client interfacing skills'
p2828
Vskills framework for the information age
p2829
sS'presales'
p2830
Vpresales
p2831
sS'communication and computing'
p2832
Vcomputer-mediated communication
p2833
sS'network operations'
p2834
Vnetwork operations center
p2835
sS'mergers & acquisitions'
p2836
Vmergers and acquisitions
p2837
sS'sustainability consulting'
p2838
Vsustainability consultant
p2839
sS'intellectual property research'
p2840
Vintellectual property research institute of australia
p2841
sS'edutainment'
p2842
Veducational entertainment
p2843
sS'brand consulting'
p2844
Vcategory:branding consultants
p2845
sS'efficient communication'
p2846
Vcommunication
p2847
sS'bioconductor'
p2848
Vbioconductor
p2849
sS'lisp'
p2850
Vlisp (programming language)
p2851
sS'computer skills'
p2852
Vcomputer literacy
p2853
sS'mapreduce'
p2854
Vmapreduce
p2855
sS'equity funding'
p2856
Vprivate equity fund
p2857
sS'rf and high-speed electronic devices'
p2858
Vwi-fi
p2859
sS'semiconductor fabrication'
p2860
Vsemiconductor device fabrication
p2861
sVrelevant real-world project experience
p2862
S'Authentic_Learning'
p2863
sS'reactive ion etching'
p2864
Vreactive-ion etching
p2865
sS'tem'
p2866
Vtransmission electron microscopy
p2867
sS'quatitative data analysis'
p2868
Vquantitative research
p2869
sS'written communication'
p2870
Vcategory:written communication
p2871
sS'systems analysis'
p2872
Vsystems analysis
p2873
sS'marketing and business plans development'
p2874
Vbusiness plan
p2875
sS'intraoperative monitoring'
p2876
Vintraoperative neurophysiological monitoring
p2877
sVdesign
p2878
S'Design'
p2879
sS'space business'
p2880
Vspace industry
p2881
sS'batch processing'
p2882
Vbatch processing
p2883
sVmulti-ethnic environments
p2884
S'Multicultural_marketing'
p2885
sS'websphere process server'
p2886
Vibm websphere process server
p2887
sS'academic writing'
p2888
Vacademic writing
p2889
sS'excellent programmer'
p2890
Vprogrammer
p2891
sS'internet marketing'
p2892
Vonline advertising
p2893
sS'cold calling'
p2894
Vcold calling
p2895
sS'powder x-ray diffraction'
p2896
Vpowder diffraction
p2897
sS'non-profit management'
p2898
Vmaster of nonprofit organizations
p2899
sS'microbiology'
p2900
Vmicrobiology
p2901
sS'fashion design'
p2902
Vfashion design
p2903
sS'bayesian networks'
p2904
Vbayesian network
p2905
sS'development management'
p2906
Vdevelopment management
p2907
sS'proficiency in word processing and spread sheets'
p2908
Vannabelle's+efolio
p2909
sS'eda techniques'
p2910
Vexploratory data analysis
p2911
sS'plc and ladder logic'
p2912
Vladder logic
p2913
sS'drive test'
p2914
Vdrive testing
p2915
sS'go-to-market strategy'
p2916
Vgo to market
p2917
sS'segmentation'
p2918
Vsegmentation
p2919
sS'open mpi'
p2920
Vopen mpi
p2921
sS'discoverer 4i'
p2922
Vcorona (satellite)
p2923
sS'3d studio max'
p2924
Vautodesk 3ds max
p2925
sS'problem solving skills'
p2926
Vproblem solving
p2927
sS'written & oral presentation skills'
p2928
Voral-communication-definition-types-advantages.html
p2929
sVfirebase
p2930
S'Firebase'
p2931
sS'system security'
p2932
Vcontrol system security
p2933
sS'b2b'
p2934
Vb2b
p2935
sS'wide range of software engineering and telecommunication engineering'
p2936
Velectrical engineering
p2937
sS'cambridge engineering selector(ces) software'
p2938
V
sS'search'
p2939
V
sS'compliance'
p2940
Vcompliance (film)
p2941
sVexperience
p2942
S'Experience'
p2943
sS'advertising'
p2944
Vadvertising
p2945
sS'strategy analysis'
p2946
Vstrategic planning
p2947
sS'google adwords'
p2948
Vadwords
p2949
sS'trainer'
p2950
Vtrainer
p2951
sS'mineral processing'
p2952
Vmineral processing
p2953
sVbusiness strategy 
p2954
S'Strategic_management'
p2955
sS'business administration'
p2956
Vbusiness administration
p2957
sS'semiconductors'
p2958
Vsemiconductor
p2959
sS'international marketing'
p2960
Vglobal marketing
p2961
sS'vb'
p2962
Vvisual basic
p2963
sS'vim'
p2964
Vvim (text editor)
p2965
sS'policy making'
p2966
Vpolicy
p2967
sS'ilustra\xc3\xa7\xc3\xa3o'
p2968
Vilustra%c3%a7%c3%a3o
p2969
sS'tems investigation'
p2970
Vdrive testing
p2971
sS'legal skills'
p2972
Vtoles
p2973
sS'marketo'
p2974
Vmarketo
p2975
sS'web analytics'
p2976
Vweb analytics
p2977
sS'game development'
p2978
Vvideo game development
p2979
sS'structured products'
p2980
Vstructured product
p2981
sS'terminologist'
p2982
Vterminology
p2983
sS'governance'
p2984
Vgovernance
p2985
sS'quantum mechanics'
p2986
Vquantum mechanics
p2987
sVit law
p2988
S''
sS'sap crm technical'
p2989
Vsap crm
p2990
sS'rhel'
p2991
Vred hat enterprise linux
p2992
sS'jive'
p2993
Vjive
p2994
sS'design and optimisation of energy systems'
p2995
Vmathematical optimization
p2996
sS'ipg carmaker'
p2997
V
sVdatamining
p2998
S'Data_mining'
p2999
sVlean ux
p3000
S'User_experience_design'
p3001
sS'operators'
p3002
Voperator
p3003
sS'sales planning'
p3004
Vsales and operations planning
p3005
sS'brainstorming'
p3006
Vbrainstorming
p3007
sS'management project'
p3008
Vproject management
p3009
sS'text processing'
p3010
Vtext processing
p3011
sS'grant writing'
p3012
Vgrant writing
p3013
sS'none'
p3014
Vnone
p3015
sS'genetic algorithms'
p3016
Vgenetic algorithm
p3017
sS'science'
p3018
Vscience
p3019
sS'mobile applications'
p3020
Vmobile app
p3021
sS'budgets'
p3022
Vbudget
p3023
sVinspire close personnel to share business goals
p3024
S'Aspiration_management'
p3025
sVstrategies
p3026
S'Strategy'
p3027
sS'visual basic'
p3028
Vvisual basic
p3029
sS'history'
p3030
Vhistory
p3031
sVreal world data analytics experience
p3032
S'Big_data'
p3033
sS'energy derivatives'
p3034
Venergy derivative
p3035
sS'f#'
p3036
Vf sharp (programming language)
p3037
sS'magento'
p3038
Vmagento
p3039
sS'cell culture'
p3040
Vcell culture
p3041
sS'graphic designer'
p3042
Vgraphic design
p3043
sS'oracle bi'
p3044
Voracle business intelligence suite enterprise edition
p3045
sS'comscore'
p3046
Vcomscore
p3047
sS'micro financing'
p3048
Vmicrofinance
p3049
sS'equities'
p3050
Vequity (finance)
p3051
sS'it and business skills'
p3052
Vskills for business
p3053
sS'csc'
p3054
Vcomputer sciences corporation
p3055
sS'pl/sql'
p3056
Vsql
p3057
sS'smalltalk'
p3058
Vsmalltalk
p3059
sS'r '
p3060
Vr (programming language)
p3061
sS'css'
p3062
Vcascading style sheets
p3063
sS'vietnam'
p3064
Vvietnam
p3065
sS'crowdfunding'
p3066
Vcrowdfunding
p3067
sS'knowledge management and information systems'
p3068
Vknowledge management
p3069
sS'escultura'
p3070
Vescultura
p3071
sS'service design'
p3072
Vservice design
p3073
sS'bioinformatics'
p3074
Vbioinformatics
p3075
sS'cost reduction'
p3076
Vcost reduction
p3077
sVacquisitions
p3078
S'Acquisition'
p3079
sS'negotiation skills'
p3080
Vwikipedia:negotiation
p3081
sS'research and analysis'
p3082
Vresearch and analysis wing
p3083
sS'maintenance management'
p3084
Vmaintenance management professional
p3085
sS'markov models'
p3086
Vmarkov model
p3087
sS'machine learning (coursera - machine learning)'
p3088
Vml
p3089
sS'documentation'
p3090
Vdocumentation
p3091
sS'django'
p3092
Vdjango
p3093
sS'mozilla firefox and google chrome extensions'
p3094
Vgoogle chrome
p3095
sS'government liaison'
p3096
Vliaison
p3097
sS'fundamental'
p3098
Vfundamental
p3099
sS'nltk'
p3100
Vnatural language toolkit
p3101
sS'photoshop'
p3102
Vadobe photoshop
p3103
sS'corporate identity'
p3104
Vcorporate identity
p3105
sS'xmpp'
p3106
Vxmpp
p3107
sS'it operations'
p3108
Vinformation technology operations
p3109
sS'strategic partnerships'
p3110
Vstrategic partnership
p3111
sS'radar'
p3112
Vradar
p3113
sVcomputational finance
p3114
S'Computational_finance'
p3115
sS'multilungual ( i learn too fast a new language) and engineering skils'
p3116
Vlist of multilingual presidents of the united states
p3117
sS'evolutionary biology'
p3118
Vevolutionary biology
p3119
sS'ultrafast spectroscopy'
p3120
Vultrafast laser spectroscopy
p3121
sS'3d modelling'
p3122
V3d modeling
p3123
sS'foswiki'
p3124
Vfoswiki
p3125
sS'pcr'
p3126
Vpolymerase chain reaction
p3127
sS'critical care'
p3128
Vcritical care
p3129
sS'selenium'
p3130
Vselenium
p3131
sS'monte carlo simulation'
p3132
Vmonte carlo method
p3133
[...]
p4940
Vdatabase
p4941
sS'investment management'
p4942
Vinvestment management
p4943
sVgraphx
p4944
S'TurboGrafx-16'
p4945
sS'pre-sales'
p4946
Vpresales
p4947
sS'sports medicine'
p4948
Vsports medicine
p4949
sS'early stage entrepreneurship'
p4950
Ventrepreneurship
p4951
sS'top secret'
p4952
Vtop secret!
p4953
sS'dojo'
p4954
Vdojo toolkit
p4955
sVpersuasion skills
p4956
S'Persuasion'
p4957
sS'planning'
p4958
Vplanning
p4959
sVspace science
p4960
S'Outline_of_space_science'
p4961
sVsolve business problems
p4962
S'Problem_solving'
p4963
sS'it management'
p4964
Vinformation technology management
p4965
sVimproved data analysis
p4966
S'JMP_(statistical_software)'
p4967
sS'process consulting'
p4968
Vprocess consultant
p4969
sVknowledge
p4970
S'Knowledge'
p4971
sS'business research'
p4972
Vbusiness research
p4973
sS'valuation'
p4974
Vvaluation
p4975
sS'hablo ingl\xc3\xa9s y me gusta hacer an\xc3\xa1lisis'
p4976
V
sS'tts'
p4977
Vtts
p4978
sS'general management'
p4979
Vgeneral manager
p4980
sS'project estimation'
p4981
Vestimation (project management)
p4982
sS'team management skills'
p4983
Vteam management
p4984
sS'analytical and organizational skills'
p4985
Vanalytical skill
p4986
sS'bonds'
p4987
Vbond (finance)
p4988
sS'photography'
p4989
Vphotography
p4990
sS'r&d'
p4991
Vresearch and development
p4992
sVwindows internals
p4993
S'Mark_Russinovich'
p4994
sVproposal writing project management
p4995
S'Proposal_(business)'
p4996
sS'maritime'
p4997
Vmaritime
p4998
sS'political consulting'
p4999
Vpolitical consulting
p5000
sVcommercial acumen
p5001
S'Business_acumen'
p5002
sS'category management'
p5003
Vcategory management
p5004
sS'key client relationships'
p5005
Vnurse%e2%80%93client relationship
p5006
sS'tactics'
p5007
Vtactic
p5008
sS'db2'
p5009
Vibm db2
p5010
sS'generalist'
p5011
Vgeneralist
p5012
sS'leadership\tinspire close personnel to share business goals and enthusiasm'
p5013
V
sS'qt'
p5014
Vqt (software)
p5015
sVtobacco
p5016
S'Tobacco'
p5017
sS'service management as a practice'
p5018
Vit service management
p5019
sVentreprenuership
p5020
S'Entrepreneurship'
p5021
sS'map reduce'
p5022
Vmapreduce
p5023
sS'credit analysis'
p5024
Vcredit analysis
p5025
sS'local government'
p5026
Vlocal government
p5027
sS'red hat enterprise linux'
p5028
Vred hat enterprise linux
p5029
sS'cognos'
p5030
Vcognos
p5031
sS'software testing life cycle'
p5032
Vsoftware testing life cycle
p5033
sS'ftir'
p5034
Vfourier transform infrared spectroscopy
p5035
sS'climate change'
p5036
Vclimate change
p5037
sVinformation architecture
p5038
S'Information_architecture'
p5039
sS'presentation skills'
p5040
Vpresentation
p5041
sS'system administration'
p5042
Vsystem administrator
p5043
sS'integrated marketing'
p5044
Vintegrated marketing communications
p5045
sVgoogle dataflow
p5046
S'MapReduce'
p5047
sS'demand generation'
p5048
Vdemand generation
p5049
sS'handling and analysing big data'
p5050
Vbig data
p5051
sVstats
p5052
S'Wikipedia:Statistics'
p5053
sVbehavioral economics research
p5054
S'Behavioral_economics'
p5055
sS'value chain analysis'
p5056
Vvalue chain
p5057
sVcontent analysis
p5058
S'Content_analysis'
p5059
sS'information management'
p5060
Vinformation management
p5061
sS'dll'
p5062
Vdynamic-link library
p5063
sVwritten
p5064
S'Writing'
p5065
sS'verilog'
p5066
Vverilog
p5067
sS'stata'
p5068
Vstata
p5069
sS'defect life cycle'
p5070
V
sS'flickr'
p5071
Vflickr
p5072
sS'bls'
p5073
Vbasic life support
p5074
sS'sales strategy'
p5075
Vsales
p5076
sS'petroleum engineer'
p5077
Vpetroleum engineering
p5078
sS'linguistics'
p5079
Vlinguistics
p5080
sS'database design'
p5081
Vdatabase design
p5082
sS'compressed air project evaluation:  payback analysis regarding the benefits of improving processes.'
p5083
Veval cactp cd.pdf
p5084
sS'photovoltaics'
p5085
Vphotovoltaics
p5086
sS'test strategy'
p5087
Vtest strategy
p5088
sS'pdca'
p5089
Vpdca
p5090
sS'e-learning'
p5091
Ve-learning
p5092
sVsap r
p5093
S'3'
sS'ability to streamline administrative processes'
p5094
Velectronic prescribing
p5095
sS'pragmatics'
p5096
Vpragmatics
p5097
sVdata analysis at scale
p5098
S'Scale_analysis_(statistics)'
p5099
sS'defense'
p5100
Vdefense
p5101
sS'technical sales \teconomic analysis'
p5102
Veconomic impact analysis
p5103
sS'coldfusion'
p5104
Vadobe coldfusion
p5105
sS'content development'
p5106
Vcontent development (web)
p5107
sS'budgeting'
p5108
Vbudget
p5109
sS'presentations'
p5110
Vpresentation
p5111
sS'key factor for closing projects in mayor steel company'
p5112
Vlackawanna steel company
p5113
sS'lien waivers'
p5114
Vlien waiver
p5115
sVetc
p5116
S'ETC'
p5117
sS'operations research'
p5118
Voperations research
p5119
sS'finance consulting'
p5120
Vfinancial adviser
p5121
sS'core java'
p5122
Vjava (software platform)
p5123
sVfixed income trading
p5124
S'Fixed_income'
p5125
sS'instructor and teacher'
p5126
Vteaching fellow
p5127
sS'mechanics'
p5128
Vmechanics
p5129
sVpredictive analysis
p5130
S'Predictive_analytics'
p5131
sS'public speaking'
p5132
Vpublic speaking
p5133
sS'data science'
p5134
Vdata science
p5135
sS'conducting training needs assessment'
p5136
Vtraining needs analysis
p5137
sS'packaging'
p5138
Vpackaging and labeling
p5139
sS'thought leadership'
p5140
Vthought leader
p5141
sS'co-pa'
p5142
Vcopa
p5143
sS'modeling'
p5144
Vmodel (people)
p5145
sS'internal communications'
p5146
Vinternal communications
p5147
sS'business process improvement'
p5148
Vbusiness process improvement
p5149
sS'mechanical engineering'
p5150
Vmechanical engineering
p5151
sVwork in multi-cultural
p5152
S'Multicultural_education'
p5153
sS'technical draftsman'
p5154
Vdrafter
p5155
sS'ansys-cfx'
p5156
Vansys cfx
p5157
sS'jit'
p5158
Vjust in time (business)
p5159
sS'asp.net mvc'
p5160
Vasp.net mvc framework
p5161
sS'experience with machine learning algorithms'
p5162
Vmachine learning
p5163
sS'json'
p5164
Vjson
p5165
sS'teamwork'
p5166
Vteamwork
p5167
sS'supervisory skills'
p5168
Vsupervisor
p5169
sS'multivariate analysis'
p5170
Vmultivariate analysis
p5171
sS'statistical learning'
p5172
Vstatistical learning theory
p5173
sVportfolio management 
p5174
S'Portfolio_management'
p5175
sS'functional specifications'
p5176
Vfunctional specification
p5177
sS'sqoop'
p5178
Vsqoop
p5179
sS'marketing communications'
p5180
Vmarketing communications
p5181
sS'c#'
p5182
Vc sharp (programming language)
p5183
sVevaluating a strategy
p5184
S'Evaluation_strategy'
p5185
sS'j2ee'
p5186
Vjava platform, enterprise edition
p5187
sS'e-business consulting'
p5188
Velectronic business
p5189
sS'streamlining operations'
p5190
Voperation-streamline-protest-tucson-arizona-texas n 2724637.html
p5191
sS'software quality assurance'
p5192
Vsoftware quality assurance
p5193
sS'laser'
p5194
Vlaser
p5195
sS'microsoft office sharepoint server'
p5196
Vsharepoint
p5197
sS'managed services'
p5198
Vmanaged services
p5199
sS'small business developent'
p5200
Vsmall business administration
p5201
sS'nursing management'
p5202
Vnursing management
p5203
sS'automated securities trading'
p5204
Valgorithmic trading
p5205
sS'x86 assembly'
p5206
Vx86 assembly language
p5207
sS'crystal reports'
p5208
Vcrystal reports
p5209
sS'cvd'
p5210
Vchemical vapor deposition
p5211
sVonline education design
p5212
S'Instructional_design'
p5213
sS'requirejs'
p5214
Vhistory.html
p5215
sS'scientific programming'
p5216
Vcomputational science
p5217
sS'neuroeconomics'
p5218
Vneuroeconomics
p5219
sS'project planning'
p5220
Vproject planning
p5221
sS'lean manufacturing'
p5222
Vlean manufacturing
p5223
sS'avr'
p5224
Vatmel avr
p5225
sS'hardware'
p5226
Vhardware
p5227
sS'lean initiatives'
p5228
Vlean manufacturing
p5229
sS'hp ppm'
p5230
Vhp software division
p5231
sS'statistical analysis'
p5232
Vstatistics
p5233
sS'hotel management'
p5234
Vhotel manager
p5235
sVdata scrubbing
p5236
S'Data_scrubbing'
p5237
sS'nanofabrication'
p5238
Vnanolithography
p5239
sS'metrology'
p5240
Vmetrology
p5241
sS'powerpoint & excel'
p5242
Vlist of microsoft office filename extensions
p5243
sS'hospitals'
p5244
Vhospital
p5245
sS'gprof'
p5246
Vgprof
p5247
sS'administration'
p5248
Vadministration
p5249
sS'sendmail'
p5250
Vsendmail
p5251
sS'access'
p5252
Vmicrosoft access
p5253
sS'python'
p5254
Vpython (programming language)
p5255
sS'retailing'
p5256
Vretail
p5257
sS'construction management'
p5258
Vconstruction management
p5259
sS'start-up consulting'
p5260
Vstartup company
p5261
sS'wells design'
p5262
Vjonathan wells (intelligent design advocate)
p5263
sS'android'
p5264
Vandroid (operating system)
p5265
sS'web development'
p5266
Vweb development
p5267
sS'simulation'
p5268
Vsimulation
p5269
sS'human computer interaction'
p5270
Vhuman%e2%80%93computer interaction
p5271
sS'http'
p5272
V
sS'six sigma'
p5273
Vsix sigma
p5274
sS'premiere'
p5275
Vpremiere
p5276
sS'quality management'
p5277
Vquality management
p5278
sS'pdh'
p5279
Vplesiochronous digital hierarchy
p5280
sS'ios'
p5281
Vios
p5282
sS'topic modelling'
p5283
Vtopic model
p5284
sS'automation'
p5285
Vautomation
p5286
sS'self published author on kindle'
p5287
Vjohn locke (author)
p5288
sS'information architecture and information design'
p5289
Vinformation architecture
p5290
sS'sun certified java programmer'
p5291
Voracle certification program
p5292
sS'architectures'
p5293
Varchitecture
p5294
sS'service delivery'
p5295
Vservice delivery framework
p5296
sVjudgment
p5297
S'Judgement'
p5298
sS'statistical programming'
p5299
Vcategory:statistical programming languages
p5300
sS'identity'
p5301
Videntity (film)
p5302
sS'biz process'
p5303
Vbusiness process
p5304
sVaudit
p5305
S'Audit'
p5306
sS'phython'
p5307
Vpython (programming language)
p5308
sS'database administrator'
p5309
Vdatabase administrator
p5310
sS'international business development'
p5311
Vinternational business development
p5312
sS'mechanical inspection'
p5313
Vinspection
p5314
sVi
S'I'
sS'indonesia'
p5315
Vindonesia
p5316
sVdigital marketing consultant
p5317
S'Digital_marketing'
p5318
sS'data center'
p5319
Vdata center
p5320
sS'procurement'
p5321
Vprocurement
p5322
sS'computer programming'
p5323
Vcomputer programming
p5324
sS'motiva\xc3\xa7\xc3\xa3o e etc.'
p5325
Vcategoria:motiva%c3%a7%c3%a3o
p5326
sS'business process design'
p5327
Vbusiness process
p5328
sS'english'
p5329
Venglish wikipedia
p5330
sS'video editing'
p5331
Vvideo editing
p5332
sS'power generation'
p5333
Velectricity generation
p5334
sS'perforce'
p5335
Vperforce
p5336
sVinnovation  ise
p5337
S'Fraunhofer_Institute_for_Solar_Energy_Systems_ISE'
p5338
sS'autism spectrum disorders'
p5339
Vautism spectrum
p5340
sS'tendering'
p5341
Vtender
p5342
sVtcp
p5343
S'Transmission_Control_Protocol'
p5344
sVbusiness plans development
p5345
S'Business_plan'
p5346
sS'abap'
p5347
Vabap
p5348
sVmarkdown
p5349
S'Markdown'
p5350
sS'passionate about retail and shopper marketing'
p5351
Vshoppermarketingagencies guide.pdf
p5352
sS'real property'
p5353
Vreal property
p5354
sVa glass company
p5355
S'Asahi_Glass_Co.'
p5356
sS'field service\t\tvisits to clients sites for trouble shooting and startup commissioning'
p5357
Vcustomer-service-brochure-0713.pdf
p5358
sS'web'
p5359
Vweb
p5360
sS'adt'
p5361
Vthe adt corporation
p5362
sS'time series analysis'
p5363
Vtime series
p5364
sS'socket programming'
p5365
Vcomputer network programming
p5366
sS'business ownership'
p5367
Vbusiness
p5368
sS'team management'
p5369
Vteam management
p5370
sS'network administration'
p5371
Vnetwork administrator
p5372
sS'nanoparticles'
p5373
Vnanoparticle
p5374
sS'infographics'
p5375
Vinfographic
p5376
sS'css3'
p5377
Vcascading style sheets
p5378
sS'object oriented software'
p5379
Vobject-oriented software engineering
p5380
sS'plsql'
p5381
Vsql
p5382
sVux design
p5383
S'User_experience_design'
p5384
sS'government'
p5385
Vgovernment
p5386
sS'behavior based safety (bbs)'
p5387
Vbehavior-based safety
p5388
sS'python '
p5389
Vpython (programming language)
p5390
sS'reinforcement learning'
p5391
Vreinforcement learning
p5392
sS'user-centered design'
p5393
Vuser-centered design
p5394
sS'gnu octave'
p5395
Vgnu octave
p5396
sS'nanotechnology'
p5397
Vnanotechnology
p5398
sS'energy policy'
p5399
Venergy policy
p5400
sS'european law'
p5401
Veuropean union law
p5402
sVdata scientist
p5403
S'Data_science'
p5404
sS'google webmaster tools'
p5405
Vgoogle webmaster tools
p5406
sS'naval architecture'
p5407
Vnaval architecture
p5408
sS'journalism'
p5409
Vjournalism
p5410
sS'recruiting & assessment'
p5411
Vassessment-centre
p5412
sS'xquery'
p5413
Vxquery
p5414
sS'modelling and simulation'
p5415
Vmodeling and simulation
p5416
sVtechnology 
p5417
S'Technology'
p5418
sS'project finance'
p5419
Vproject finance
p5420
sS'italian'
p5421
Vitalian wikipedia
p5422
sS'market analysis'
p5423
Vmarket analysis
p5424
sS'perl script'
p5425
Vperl
p5426
sS'kde'
p5427
Vkde
p5428
sS'twitter'
p5429
Vtwitter
p5430
sS'regression testing'
p5431
Vregression testing
p5432
sS'social media outreach'
p5433
V3-tools-to-help-you-with-social-media-outreach-0126190
p5434
sS'biological systems'
p5435
Vbiological system
p5436
sS'export'
p5437
Vexport
p5438
sS'elder care'
p5439
Velderly care
p5440
sVsome r proficiency
p5441
S'Defense_Language_Proficiency_Tests'
p5442
sS'large scale computing'
p5443
Vlarge-scale complex it systems
p5444
sS'project administration'
p5445
Vwikipedia:administration
p5446
sS'public policy'
p5447
Vpublic policy
p5448
sS'linux desktop'
p5449
Vlinux
p5450
sVexcellent communication
p5451
S'Information_and_communication_technologies_for_development'
p5452
sV1st level troubleshooting (xp
p5453
S'Paranoia_(role-playing_game)'
p5454
sS'industrial engineering'
p5455
Vindustrial engineering
p5456
sS'lead generation'
p5457
Vlead generation
p5458
sS'lean'
p5459
Vlean
p5460
sS'sdsf'
p5461
Vsdsf
p5462
sS'troubleshooting: hardware and software'
p5463
Vtroubleshooting
p5464
sS'mathematical statistics'
p5465
Vmathematical statistics
p5466
sVpassion
p5467
S'Passion_(2012_film)'
p5468
sS'esb'
p5469
Venterprise service bus
p5470
sS'information security'
p5471
Vinformation security
p5472
sS'optical microscopy'
p5473
Voptical microscope
p5474
sS'biology'
p5475
Vbiology
p5476
sS'data analysis'
p5477
Vdata analysis
p5478
sS'licensing'
p5479
Vlicense
p5480
sS'dcf'
p5481
Vdiscounted cash flow
p5482
sS'team leadership'
p5483
Vteam leader
p5484
sS'risk based testing'
p5485
Vrisk-based testing
p5486
sVself-organization
p5487
S'Self-organization'
p5488
sS'maven'
p5489
Vapache maven
p5490
sS'epidemiology'
p5491
Vepidemiology
p5492
sS'exhibit preparation'
p5493
Vart exhibition
p5494
sS'critical thinking'
p5495
Vcritical thinking
p5496
sS'loans'
p5497
Vloan
p5498
sS'circuit design'
p5499
Vcircuit design
p5500
sS'national security'
p5501
Vnational security
p5502
sS'marketing analytics'
p5503
Vcategory:marketing analytics
p5504
sS'kernel programming'
p5505
Vcategory:kernel programmers
p5506
sS'desktop application support'
p5507
Vtechnical support
p5508
sS'arcgis'
p5509
Varcgis
p5510
sS'data analytics'
p5511
Vdata analysis
p5512
sS'user acceptance testing'
p5513
Vacceptance testing
p5514
sS'cost management.'
p5515
Vproject cost management
p5516
sVclojure
p5517
S'Clojure'
p5518
sS'powerpoint'
p5519
Vmicrosoft powerpoint
p5520
sVsoftware
p5521
S'Software'
p5522
sS'end-to-end testing'
p5523
Vend-to-end-test
p5524
sS'emotional intelligence'
p5525
Vemotional intelligence
p5526
sVoptimisation of energy systems
p5527
S'Voltage_optimisation'
p5528
sVmore python
p5529
S'Python_(programming_language)'
p5530
sS'ultrasound'
p5531
Vultrasound
p5532
sS'manufacturing operations management'
p5533
Vmanufacturing operations management
p5534
sVmore leadership
p5535
S'Leadership'
p5536
sS'problem solving'
p5537
Vproblem solving
p5538
sS'ninjatrader'
p5539
Vtechnical analysis software
p5540
sS'zoology'
p5541
Vzoology
p5542
sS'infographics and visualisations'
p5543
Vinfographic
p5544
sS'microsoft excel'
p5545
Vmicrosoft excel
p5546
sS'quantitative analysis'
p5547
Vquantitative analysis
p5548
sS'load balancing'
p5549
Vload balancing (computing)
p5550
sS'macroeconomics'
p5551
Vmacroeconomics
p5552
sS'delivery excellence'
p5553
Voperational excellence
p5554
sS'networking'
p5555
Vcomputer network
p5556
sS'commodity markets'
p5557
Vcommodity market
p5558
sS'snmp'
p5559
Vsimple network management protocol
p5560
sS'rf engineering'
p5561
Vradio frequency engineering
p5562
sS'continuous improvement'
p5563
Vcontinual improvement process
p5564
sS'profitability analysis'
p5565
Vprofitability analysis (sap)
p5566
sS'community development'
p5567
Vcommunity development
p5568
sS'unified communications'
p5569
Vunified communications
p5570
sS'vas'
p5571
Vvalue-added service
p5572
sS'msc.adams'
p5573
Vmsc adams
p5574
sS'artificial intelligence'
p5575
Vartificial intelligence
p5576
sS'interferometry'
p5577
Vinterferometry
p5578
sS'systems engineering'
p5579
Vsystems engineering
p5580
sVise in above mentioned skills
p5581
S'Trinity_College_London_ESOL'
p5582
sS'integration testing'
p5583
Vintegration testing
p5584
sS'hr'
p5585
V
sVreasoning
p5586
S'Reason'
p5587
sS'construction'
p5588
Vconstruction
p5589
sS'internet services'
p5590
Vinternet service provider
p5591
sS'basic biology'
p5592
Vbiology
p5593
sS'editing'
p5594
Vhelp:editing
p5595
sVobject-oriented analysis
p5596
S'Object-oriented_analysis_and_design'
p5597
sS'event management'
p5598
Vevent management
p5599
sS'itil'
p5600
Vinformation technology infrastructure library
p5601
sS'parallel programming'
p5602
Vparallel computing
p5603
sS'wcf services'
p5604
Vwindows communication foundation
p5605
sVj
S'J'
sS'internet tools'
p5606
Vinternet tools
p5607
sS'physical vapour depsition'
p5608
Vphysical vapor deposition
p5609
sS'rdbms'
p5610
Vrelational database management system
p5611
sS'graphite'
p5612
Vgraphite
p5613
sVmore experience
p5614
S'More_Experience'
p5615
sS'lvm'
p5616
Vlogical volume manager (linux)
p5617
sS'news writing'
p5618
Vcategory:newswriting
p5619
sS'vertical response'
p5620
Vverticalresponse
p5621
sS'workshop facilitation'
p5622
Vfacilitation (business)
p5623
sS'multi-objective evolutionary optimization'
p5624
Vmulti-objective optimization
p5625
sVengineering skils
p5626
S'Tournament_In_Management_and_Engineering_Skills'
p5627
sVworking with hadoop
p5628
S'Apache_Hadoop'
p5629
sS'customer satisfaction'
p5630
Vcustomer satisfaction
p5631
sS'regression analysis'
p5632
Vregression analysis
p5633
sS'citrix'
p5634
Vcitrix systems
p5635
sVcost benefit analysis
p5636
S'Cost%E2%80%93benefit_analysis'
p5637
sS'pig'
p5638
Vpig
p5639
sS'report writing'
p5640
Vreport
p5641
sS'help desk support'
p5642
Vhelp desk
p5643
sVoperations planning
p5644
S'Operational_planning'
p5645
sS'quartz scheduler'
p5646
Vquartz (scheduler)
p5647
sVmysql)
p5648
S'MySQL'
p5649
sS'multivariate statistics'
p5650
Vmultivariate statistics
p5651
sS'business economics'
p5652
Vbusiness economics
p5653
sVfollow ups
p5654
S'Follow-up'
p5655
sS'javasc'
p5656
Vjavascript
p5657
sS'mathematical analysis'
p5658
Vmathematical analysis
p5659
sS'business/innovation expertise'
p5660
Vservice innovation
p5661
sS'hydrology'
p5662
Vhydrology
p5663
sS'jasper reports'
p5664
Vjasperreports
p5665
sS'disposables'
p5666
Vdisposable
p5667
sS'informatica powercenter'
p5668
Vinformatica
p5669
sS'acls'
p5670
Vadvanced cardiac life support
p5671
sS'export marketing'
p5672
Vexport
p5673
sVphp4
p5674
S'PHP'
p5675
sS'portfolio management / fixed income trading'
p5676
Vadvisors asset management
p5677
sVfollow up.
p5678
S'Follow-up'
p5679
sS'fmea'
p5680
Vfailure mode and effects analysis
p5681
sS'conceptual & pragmatic'
p5682
Vpragmatism
p5683
sS'good with numbers'
p5684
Vnumbers in chinese culture
p5685
sVthe fundamental of business skills
p5686
S'Data_architect'
p5687
sS'sales management'
p5688
Vsales management
p5689
sS'catering'
p5690
Vcatering
p5691
sS'debian'
p5692
Vdebian
p5693
sS'bcm'
p5694
Vbcm
p5695
sS'sass'
p5696
Vsass (stylesheet language)
p5697
sVwrite
p5698
S'Writing'
p5699
sS'questionnaires'
p5700
Vquestionnaire
p5701
sS'biotechnology'
p5702
Vbiotechnology
p5703
sS'it infastructure'
p5704
Vinformation technology management
p5705
sVexadata
p5706
S'Oracle_Exadata'
p5707
s.